58
-156694.9871 21182.15570 195120.18371 205485.77128
LM        4.031731700         4.891207937         21.67851200    
LM       -1.343910770         4.891207937         21.67851200    
LM        1.343909230         4.891197937         21.67851200    
LM        2.687820770         7.058567937         21.68060200    
LM       -2.687820770         7.058567937         21.68061200    
LM       0.9230123082E-05     7.058567937         21.68060200    
LM        5.375641540         2.363676707         21.83031200    
LM      -0.8000000018E-07     2.363676707         21.83031200    
LM        2.687820000         2.363676707         21.83031200    
LM        5.375640770         4.007960937         24.03431200    
LM      -0.7698769200E-06     4.007960937         24.03432200    
LM        2.687819230         4.007961937         24.03432200    
LM        4.031731040         6.385747937         23.94130200    
LM       -1.343910770         6.385747937         23.94130200    
LM        1.343909230         6.385747937         23.94130200    
LM        6.719551540         1.691236707         24.15856200    
LM        1.343910000         1.691236707         24.15857200    
LM        4.031730000         1.691246707         24.15856200    
LM        4.031730000         3.142236707         26.31732200    
LM       -1.343910000         3.142246707         26.31732200    
LM        1.343910000         3.142246707         26.31732200    
LM        2.687819230         5.506087937         26.24932200    
LM       -2.687820770         5.506087937         26.24932200    
LM      -0.7698769195E-06     5.506087937         26.24932200    
LM        5.375641540         1.172286707         26.25032200    
LM       0.1810000000E-05     1.172286707         26.25032200    
LM        2.687820000         1.172286707         26.25032200    
LM        4.215129165         4.784308068         1.257519878    
LM        5.795473192        0.6872049236         6.655557956    
LM        5.464803971         3.929467032         3.292494915    
LM       -1.408469930         4.781812628         1.170771670    
LM       0.3683207272E-01    0.7009952831         5.500529045    
LM       0.9749496283E-01     3.851767437         3.460358091    
LM        1.256516857         4.647403144         1.229748890    
LM        2.745455678        0.6599310018         5.566046163    
LM        2.744069248         3.898163603         3.313104222    
LM        2.758878695         6.928407363         1.118618739    
LM        4.277601166         2.866201003         5.910776320    
LM        4.182665276         6.260380568         3.197222127    
LM       -2.629550949         6.837018086         1.165779918    
LM       -1.204203655         3.080716573         5.552222232    
LM       -1.312879880         6.220404401         3.240418654    
LM      -0.1515829918         6.910374355         1.026975194    
LM        1.390501836         3.098775452         5.553726248    
LM        1.387192436         6.191735803         3.408204157    
LM        5.359411903         2.367561371         1.133246103    
LM        6.767243015        -1.546897380         5.611248049    
LM        6.821042731         1.509749798         3.361180734    
LM       0.3806703778E-01     2.313772927         1.187786561    
LM       -2.533013089         5.371789969         5.597167673    
LM        1.322490165         1.454698368         3.362983063    
LM        2.682937925         2.216457559         1.163457592    
LM       0.8922187817E-01     5.299385322         5.411422410    
LM        4.064346359         1.550931006         3.405225287    
LM        4.169510895         4.690584971         6.944512870    
LM        2.621591226         2.183773325         6.956876018    
LM        6.257446703         1.019599953         8.093789363    
LM        4.409234986       -0.4394788461         6.662182894    
