58
-156695.0750 21825.27403 196652.09359 205945.19218
LM        4.031730000         4.891210000         21.67850000    
LM       -1.343910000         4.891210000         21.67850000    
LM        1.343910000         4.891200000         21.67850000    
LM        2.687820000         7.058570000         21.68060000    
LM       -2.687820000         7.058570000         21.68060000    
LM       0.9230100000E-05     7.058570000         21.68060000    
LM        5.375640000         2.363680000         21.83030000    
LM      -0.8000000000E-07     2.363680000         21.83030000    
LM        2.687820000         2.363680000         21.83030000    
LM        5.375640000         4.007960000         24.03430000    
LM      -0.7699000000E-06     4.007960000         24.03430000    
LM        2.687820000         4.007960000         24.03430000    
LM        4.031730000         6.385750000         23.94130000    
LM       -1.343910000         6.385750000         23.94130000    
LM        1.343910000         6.385750000         23.94130000    
LM        6.719550000         1.691240000         24.15860000    
LM        1.343910000         1.691240000         24.15860000    
LM        4.031730000         1.691250000         24.15860000    
LM        4.031730000         3.142240000         26.31730000    
LM       -1.343910000         3.142250000         26.31730000    
LM        1.343910000         3.142250000         26.31730000    
LM        2.687820000         5.506090000         26.24930000    
LM       -2.687820000         5.506090000         26.24930000    
LM      -0.7699000000E-06     5.506090000         26.24930000    
LM        5.375640000         1.172290000         26.25030000    
LM       0.1810000000E-05     1.172290000         26.25030000    
LM        2.687820000         1.172290000         26.25030000    
LM        4.217831190         4.794576546         1.275641227    
LM        6.968492677         3.399782103         6.699434104    
LM        5.469365283         3.923424119         3.330228810    
LM       -1.404820304         4.772016794         1.186117745    
LM        1.208204703         3.000955597         5.549475544    
LM       0.9468772138E-01     3.781302156         3.365831149    
LM        1.265976647         4.642042248         1.232945893    
LM        4.088892589         2.988885247         5.643118082    
LM        2.716203137         3.872461000         3.345298934    
LM        2.757724476         6.939931360         1.103233951    
LM        5.489389330         5.255820405         5.702469110    
LM        4.162856991         6.269706023         3.175768305    
LM       -2.628670535         6.829222029         1.176897704    
LM       0.2330600306E-01     5.326640625         5.489325972    
LM       -1.356763558         6.215161946         3.260624393    
LM      -0.1583895547         6.898342961         1.038999638    
LM        2.624466227         5.431368644         5.679091328    
LM        1.421931293         6.212362051         3.359551905    
LM        5.357971483         2.387907134         1.136024410    
LM        8.143199412        0.5993757001         5.468808778    
LM        6.833708311         1.577800961         3.436134179    
LM       0.2984680231E-01     2.315719654         1.190006002    
LM       -1.189237225         7.651935187         5.668134137    
LM        1.289583628         1.490968876         3.316918810    
LM        2.679774761         2.225139829         1.152945385    
LM        1.415933975         7.713015651         5.478105037    
LM        4.043107135         1.513722928         3.364213229    
LM        5.428766150         8.368525613         6.921002513    
LM        3.953693605         4.596923180         6.972622474    
LM        7.293929784         3.820220597         8.157026629    
LM        5.950569153         1.945555897         6.641429210    
