58
-156695.8979 20499.23654 195803.43815 206042.89895
LM        4.031730000         4.891210000         21.67850000    
LM       -1.343910000         4.891210000         21.67850000    
LM        1.343910000         4.891200000         21.67850000    
LM        2.687820000         7.058570000         21.68060000    
LM       -2.687820000         7.058570000         21.68060000    
LM       0.9230100000E-05     7.058570000         21.68060000    
LM        5.375640000         2.363680000         21.83030000    
LM      -0.8000000000E-07     2.363680000         21.83030000    
LM        2.687820000         2.363680000         21.83030000    
LM        5.375640000         4.007960000         24.03430000    
LM      -0.7699000000E-06     4.007960000         24.03430000    
LM        2.687820000         4.007960000         24.03430000    
LM        4.031730000         6.385750000         23.94130000    
LM       -1.343910000         6.385750000         23.94130000    
LM        1.343910000         6.385750000         23.94130000    
LM        6.719550000         1.691240000         24.15860000    
LM        1.343910000         1.691240000         24.15860000    
LM        4.031730000         1.691250000         24.15860000    
LM        4.031730000         3.142240000         26.31730000    
LM       -1.343910000         3.142250000         26.31730000    
LM        1.343910000         3.142250000         26.31730000    
LM        2.687820000         5.506090000         26.24930000    
LM       -2.687820000         5.506090000         26.24930000    
LM      -0.7699000000E-06     5.506090000         26.24930000    
LM        5.375640000         1.172290000         26.25030000    
LM       0.1810000000E-05     1.172290000         26.25030000    
LM        2.687820000         1.172290000         26.25030000    
LM        4.228387434         4.815928118         1.277057967    
LM        5.267332771         1.955202391         6.681087650    
LM        5.480451902         3.950069006         3.320341106    
LM       -1.401570786         4.790189904         1.172952568    
LM      -0.1697880356E-01     2.378472842         5.632221535    
LM       0.1399808097         3.731962066         3.436030419    
LM        1.260995831         4.637521021         1.235676241    
LM        2.738326279         2.288856474         5.595260290    
LM        2.772264396         3.926463747         3.326119906    
LM        2.739384714         6.943271850         1.105628740    
LM        4.187322327         4.561959268         5.687761407    
LM        4.163356259         6.280874803         3.168698391    
LM       -2.641398377         6.847005026         1.121849251    
LM       -1.202864009         4.752846123         5.497056898    
LM       -1.364355245         6.306612844         3.212861205    
LM      -0.1418902631         6.906812894         1.020416482    
LM        1.372622945         4.661383611         5.580405407    
LM        1.352833789         6.214884144         3.344766556    
LM        5.358521051         2.392762760         1.136864375    
LM        6.763137572       -0.5234970082E-01     5.534479907    
LM        6.834711931         1.546782908         3.397383608    
LM       0.3319712209E-01     2.315849744         1.197337280    
LM       -2.577403493         7.019540865         5.546511275    
LM        1.302163985         1.605039073         3.462242195    
LM        2.684751217         2.220424300         1.171815198    
LM       0.7395465193E-01     6.953502853         5.554900133    
LM        4.069208413         1.549217977         3.412222902    
LM        4.145513469         6.235162108         6.914930012    
LM        4.047082744         3.047089665         7.192371144    
LM        6.759344129         2.366910182         7.302443207    
LM        4.549287809        0.4093521706         7.152717054    
