58
-156695.8732 20215.98751 194572.58171 203287.56250
LM        4.031730000         4.891210000         21.67850000    
LM       -1.343910000         4.891210000         21.67850000    
LM        1.343910000         4.891200000         21.67850000    
LM        2.687820000         7.058570000         21.68060000    
LM       -2.687820000         7.058570000         21.68060000    
LM       0.9230100000E-05     7.058570000         21.68060000    
LM        5.375640000         2.363680000         21.83030000    
LM      -0.8000000000E-07     2.363680000         21.83030000    
LM        2.687820000         2.363680000         21.83030000    
LM        5.375640000         4.007960000         24.03430000    
LM      -0.7699000000E-06     4.007960000         24.03430000    
LM        2.687820000         4.007960000         24.03430000    
LM        4.031730000         6.385750000         23.94130000    
LM       -1.343910000         6.385750000         23.94130000    
LM        1.343910000         6.385750000         23.94130000    
LM        6.719550000         1.691240000         24.15860000    
LM        1.343910000         1.691240000         24.15860000    
LM        4.031730000         1.691250000         24.15860000    
LM        4.031730000         3.142240000         26.31730000    
LM       -1.343910000         3.142250000         26.31730000    
LM        1.343910000         3.142250000         26.31730000    
LM        2.687820000         5.506090000         26.24930000    
LM       -2.687820000         5.506090000         26.24930000    
LM      -0.7699000000E-06     5.506090000         26.24930000    
LM        5.375640000         1.172290000         26.25030000    
LM       0.1810000000E-05     1.172290000         26.25030000    
LM        2.687820000         1.172290000         26.25030000    
LM        4.232034819         4.797603270         1.260657239    
LM        5.064545038         1.489709387         7.427848579    
LM        5.502063108         3.915021851         3.290496386    
LM       -1.401895620         4.788460792         1.161872137    
LM      -0.1792451881E-03     2.418593508         5.648832700    
LM       0.1390980882         3.725834098         3.456148332    
LM        1.246419510         4.657332731         1.247583705    
LM        2.749934802         2.315643434         5.516916910    
LM        2.753167510         3.917098247         3.298356914    
LM        2.749066560         6.933764482         1.120921112    
LM        4.106250290         4.676024416         5.535978820    
LM        4.190163170         6.238471719         3.176704788    
LM       -2.633490552         6.843677454         1.133822102    
LM       -1.269184287         4.701475213         5.508502082    
LM       -1.334560152         6.277705618         3.213117013    
LM      -0.1429870932         6.914357254         1.012536201    
LM        1.356303320         4.710619056         5.620289197    
LM        1.398169331         6.221953895         3.407728640    
LM        5.361539327         2.368821495         1.133898401    
LM        6.557985039        0.1152165007         5.818684260    
LM        6.859654293         1.517372755         3.433439318    
LM       0.3009707641E-01     2.318482381         1.200471586    
LM       -2.660283879         6.991331882         5.469304089    
LM        1.319275855         1.585296367         3.386128464    
LM        2.685385258         2.223123833         1.166291139    
LM      -0.2701928117E-01     6.903966668         5.541719309    
LM        4.092370896         1.526368089         3.414165539    
LM        4.135152727         7.785688901         6.926510391    
LM        4.408409797         2.930977340         6.831805921    
LM        5.573255830         1.584141330         8.905111492    
LM        3.925468172        0.1852572280         7.261900077    
