58
-156695.1098 18060.98356 195876.14469 203269.48083
LM        4.031730000         4.891210000         21.67850000    
LM       -1.343910000         4.891210000         21.67850000    
LM        1.343910000         4.891200000         21.67850000    
LM        2.687820000         7.058570000         21.68060000    
LM       -2.687820000         7.058570000         21.68060000    
LM       0.9230100000E-05     7.058570000         21.68060000    
LM        5.375640000         2.363680000         21.83030000    
LM      -0.8000000000E-07     2.363680000         21.83030000    
LM        2.687820000         2.363680000         21.83030000    
LM        5.375640000         4.007960000         24.03430000    
LM      -0.7699000000E-06     4.007960000         24.03430000    
LM        2.687820000         4.007960000         24.03430000    
LM        4.031730000         6.385750000         23.94130000    
LM       -1.343910000         6.385750000         23.94130000    
LM        1.343910000         6.385750000         23.94130000    
LM        6.719550000         1.691240000         24.15860000    
LM        1.343910000         1.691240000         24.15860000    
LM        4.031730000         1.691250000         24.15860000    
LM        4.031730000         3.142240000         26.31730000    
LM       -1.343910000         3.142250000         26.31730000    
LM        1.343910000         3.142250000         26.31730000    
LM        2.687820000         5.506090000         26.24930000    
LM       -2.687820000         5.506090000         26.24930000    
LM      -0.7699000000E-06     5.506090000         26.24930000    
LM        5.375640000         1.172290000         26.25030000    
LM       0.1810000000E-05     1.172290000         26.25030000    
LM        2.687820000         1.172290000         26.25030000    
LM        4.232638283         4.803870025         1.251509574    
LM        4.339841958         3.120674850         5.993208599    
LM        5.468069549         3.936342247         3.287232991    
LM       -1.394061175         4.785166818         1.176094557    
LM       -1.184169333         3.086630916         5.511725456    
LM       0.1323524382         3.766460962         3.370209220    
LM        1.248715501         4.647460610         1.221438690    
LM        1.740240764         2.875305068         5.446863258    
LM        2.777263522         4.038304192         3.278408003    
LM        2.745857955         6.936046364         1.105699882    
LM        2.886864356         5.341183272         5.674486005    
LM        4.178802808         6.287379212         3.180532374    
LM       -2.619725796         6.839730078         1.151508804    
LM       -2.550848338         5.390631497         5.506841108    
LM       -1.340391933         6.289372432         3.247106624    
LM      -0.1523801300         6.896956319         1.005407589    
LM       0.9646511247E-01     5.389137252         5.545819727    
LM        1.320930481         6.276150265         3.323273962    
LM        5.337377146         2.357022433         1.155395064    
LM        5.385395047        0.8299259845         5.691548165    
LM        6.818946228         1.526711708         3.349470115    
LM       0.3192790632E-01     2.318261217         1.175517567    
LM       -3.785108088         7.715410409         5.493364888    
LM        1.277966555         1.507033163         3.314229318    
LM        2.698665178         2.216619195         1.201692520    
LM       -1.194268740         7.605543769         5.976704804    
LM        3.878466742         1.663548733         3.686766765    
LM        2.881480641         7.077563822         6.881023370    
LM        1.378712014         4.410734729         6.826559900    
LM        4.343433060         3.204441114         7.539570252    
LM        2.713155385        0.5885581787         7.522806507    
