58
-156694.9859 18961.49297 197024.13557 205592.62743
LM        4.031730000         4.891210000         21.67850000    
LM       -1.343910000         4.891210000         21.67850000    
LM        1.343910000         4.891200000         21.67850000    
LM        2.687820000         7.058570000         21.68060000    
LM       -2.687820000         7.058570000         21.68060000    
LM       0.9230100000E-05     7.058570000         21.68060000    
LM        5.375640000         2.363680000         21.83030000    
LM      -0.8000000000E-07     2.363680000         21.83030000    
LM        2.687820000         2.363680000         21.83030000    
LM        5.375640000         4.007960000         24.03430000    
LM      -0.7699000000E-06     4.007960000         24.03430000    
LM        2.687820000         4.007960000         24.03430000    
LM        4.031730000         6.385750000         23.94130000    
LM       -1.343910000         6.385750000         23.94130000    
LM        1.343910000         6.385750000         23.94130000    
LM        6.719550000         1.691240000         24.15860000    
LM        1.343910000         1.691240000         24.15860000    
LM        4.031730000         1.691250000         24.15860000    
LM        4.031730000         3.142240000         26.31730000    
LM       -1.343910000         3.142250000         26.31730000    
LM        1.343910000         3.142250000         26.31730000    
LM        2.687820000         5.506090000         26.24930000    
LM       -2.687820000         5.506090000         26.24930000    
LM      -0.7699000000E-06     5.506090000         26.24930000    
LM        5.375640000         1.172290000         26.25030000    
LM       0.1810000000E-05     1.172290000         26.25030000    
LM        2.687820000         1.172290000         26.25030000    
LM        4.208541260         4.800070769         1.265166274    
LM        5.433822861         2.236381533         5.965709964    
LM        5.457770174         3.939205975         3.307119852    
LM       -1.392483725         4.771639189         1.180792494    
LM       0.1141355761         2.351635796         5.506786101    
LM       0.7936226750E-01     3.806565022         3.359544033    
LM        1.266152360         4.652409170         1.235879447    
LM        2.846798652         2.324813276         5.688483948    
LM        2.719072595         3.896872662         3.338005730    
LM        2.744892908         6.939514390         1.119373843    
LM        4.100898781         4.679926026         5.550983770    
LM        4.184071933         6.274238650         3.181429733    
LM       -2.632083720         6.836453384         1.165074926    
LM       -1.257682825         4.669855247         5.564776097    
LM       -1.317535901         6.244920032         3.244799965    
LM      -0.1418932670         6.911810871         1.016009962    
LM        1.348907328         4.773508507         5.689795516    
LM        1.386088806         6.203195744         3.398087481    
LM        5.353204566         2.377160966         1.135161717    
LM        6.745773696        0.7093529028E-01     5.670602006    
LM        6.827465993         1.550138497         3.404592892    
LM       0.3103313912E-01     2.316833500         1.191896915    
LM       -2.532353628         7.009523745         5.527523884    
LM        1.303345009         1.498473914         3.351008120    
LM        2.683070490         2.219316702         1.167723408    
LM       0.1170909257         6.976788622         5.545301801    
LM        4.051144249         1.547312588         3.416958640    
LM        4.166838674         6.252869916         6.917997076    
LM        1.433979813         3.150554577         6.966610104    
LM        6.099567581         3.283820190         7.062688541    
LM        4.288383445         1.142140800         6.863795296    
