58
-156695.0069 18989.97470 194824.22742 203742.55435
LM        4.031731700         4.891207937         21.67851200    
LM       -1.343910770         4.891207937         21.67851200    
LM        1.343909230         4.891197937         21.67851200    
LM        2.687820770         7.058567937         21.68060200    
LM       -2.687820770         7.058567937         21.68061200    
LM       0.9230123082E-05     7.058567937         21.68060200    
LM        5.375641540         2.363676707         21.83031200    
LM      -0.8000000018E-07     2.363676707         21.83031200    
LM        2.687820000         2.363676707         21.83031200    
LM        5.375640770         4.007960937         24.03431200    
LM      -0.7698769200E-06     4.007960937         24.03432200    
LM        2.687819230         4.007961937         24.03432200    
LM        4.031731040         6.385747937         23.94130200    
LM       -1.343910770         6.385747937         23.94130200    
LM        1.343909230         6.385747937         23.94130200    
LM        6.719551540         1.691236707         24.15856200    
LM        1.343910000         1.691236707         24.15857200    
LM        4.031730000         1.691246707         24.15856200    
LM        4.031730000         3.142236707         26.31732200    
LM       -1.343910000         3.142246707         26.31732200    
LM        1.343910000         3.142246707         26.31732200    
LM        2.687819230         5.506087937         26.24932200    
LM       -2.687820770         5.506087937         26.24932200    
LM      -0.7698769195E-06     5.506087937         26.24932200    
LM        5.375641540         1.172286707         26.25032200    
LM       0.1810000000E-05     1.172286707         26.25032200    
LM        2.687820000         1.172286707         26.25032200    
LM        4.226065246         4.798465053         1.278747323    
LM        5.201408901         2.213898826         6.663244455    
LM        5.469995670         3.930638062         3.348868170    
LM       -1.399927648         4.775469275         1.189156237    
LM      -0.2961041972E-01     2.390952427         5.606238549    
LM       0.1037347874         3.764529715         3.374397849    
LM        1.262517376         4.649253171         1.239402645    
LM        2.689893384         2.258087485         5.540907624    
LM        2.744439062         3.925110222         3.347553955    
LM        2.738308836         6.941798716         1.109006751    
LM        4.099296638         4.508205654         5.707910657    
LM        4.177287500         6.271000150         3.135789783    
LM       -2.630988567         6.842168543         1.138641226    
LM       -1.301485414         4.748798810         5.594962474    
LM       -1.349530348         6.261449011         3.239628376    
LM      -0.1458690645         6.916021968         1.018690245    
LM        1.374923795         4.731792686         5.636165147    
LM        1.382190415         6.208144254         3.388232965    
LM        5.361016833         2.392002078         1.134501886    
LM        6.565775814        0.1452159252         5.758072338    
LM        6.833017984         1.529946303         3.413628253    
LM       0.3001157246E-01     2.314433029         1.194867330    
LM       -2.759061694         6.986904916         5.464799231    
LM        1.284166605         1.582438389         3.415571876    
LM        2.680085534         2.233701576         1.162989709    
LM      -0.5300893227E-02     6.972401667         5.433192644    
LM        4.061305486         1.539864662         3.360326248    
LM        4.007259256         6.198185208         6.903432374    
LM       0.4417794759E-01     3.972874635         6.983681315    
LM        5.695371328         2.677140948         8.053273626    
LM        3.911486497        0.9910957981         6.876800896    
