58
-156696.1013 20546.10766 194367.04236 204906.96929
LM        4.031731700         4.891207937         21.67851200    
LM       -1.343910770         4.891207937         21.67851200    
LM        1.343909230         4.891197937         21.67851200    
LM        2.687820770         7.058567937         21.68060200    
LM       -2.687820770         7.058567937         21.68061200    
LM       0.9230123082E-05     7.058567937         21.68060200    
LM        5.375641540         2.363676707         21.83031200    
LM      -0.8000000018E-07     2.363676707         21.83031200    
LM        2.687820000         2.363676707         21.83031200    
LM        5.375640770         4.007960937         24.03431200    
LM      -0.7698769200E-06     4.007960937         24.03432200    
LM        2.687819230         4.007961937         24.03432200    
LM        4.031731040         6.385747937         23.94130200    
LM       -1.343910770         6.385747937         23.94130200    
LM        1.343909230         6.385747937         23.94130200    
LM        6.719551540         1.691236707         24.15856200    
LM        1.343910000         1.691236707         24.15857200    
LM        4.031730000         1.691246707         24.15856200    
LM        4.031730000         3.142236707         26.31732200    
LM       -1.343910000         3.142246707         26.31732200    
LM        1.343910000         3.142246707         26.31732200    
LM        2.687819230         5.506087937         26.24932200    
LM       -2.687820770         5.506087937         26.24932200    
LM      -0.7698769195E-06     5.506087937         26.24932200    
LM        5.375641540         1.172286707         26.25032200    
LM       0.1810000000E-05     1.172286707         26.25032200    
LM        2.687820000         1.172286707         26.25032200    
LM        4.225997632         4.801186922         1.269893089    
LM        5.836719622         1.934739612         7.100197961    
LM        5.480392076         3.930046939         3.317328853    
LM       -1.400217699         4.782067285         1.171948288    
LM      -0.2876967890E-03     2.362436480         5.623842663    
LM       0.1127361963         3.752517938         3.444611020    
LM        1.255633698         4.645895854         1.243416208    
LM        2.720482859         2.275126041         5.556892984    
LM        2.757869983         3.916068175         3.328413738    
LM        2.744845543         6.937344438         1.111477377    
LM        4.070055099         4.548171537         5.626500395    
LM        4.183250142         6.261544171         3.161329928    
LM       -2.633375455         6.842608507         1.139950927    
LM       -1.213658161         4.733277176         5.522786874    
LM       -1.336849495         6.268185213         3.225616580    
LM      -0.1430739846         6.911649240         1.015667999    
LM        1.356752043         4.675961069         5.610537038    
LM        1.383767031         6.212859940         3.379732381    
LM        5.361375415         2.382362669         1.131684386    
LM        6.673559271        0.2811484852E-01     5.696415378    
LM        6.838961361         1.523296701         3.414409745    
LM       0.3105489923E-01     2.316397790         1.202149453    
LM       -2.637537705         6.998247878         5.499414273    
LM        1.304615085         1.552644747         3.418271723    
LM        2.681689781         2.226689616         1.164227754    
LM       0.5999480516E-01     6.980303770         5.499961110    
LM        4.075559958         1.541409242         3.383957426    
LM        4.142834390         6.180428974         6.900569555    
LM        5.540565829         3.598009864         6.903253495    
LM        6.364336744         1.592019917         8.529694165    
LM        4.210655611         1.203308450         6.797646200    
