58
-156694.7249 19595.28409 196484.21787 203616.11774
LM        4.031730000         4.891210000         21.67850000    
LM       -1.343910000         4.891210000         21.67850000    
LM        1.343910000         4.891200000         21.67850000    
LM        2.687820000         7.058570000         21.68060000    
LM       -2.687820000         7.058570000         21.68060000    
LM       0.9230100000E-05     7.058570000         21.68060000    
LM        5.375640000         2.363680000         21.83030000    
LM      -0.8000000000E-07     2.363680000         21.83030000    
LM        2.687820000         2.363680000         21.83030000    
LM        5.375640000         4.007960000         24.03430000    
LM      -0.7699000000E-06     4.007960000         24.03430000    
LM        2.687820000         4.007960000         24.03430000    
LM        4.031730000         6.385750000         23.94130000    
LM       -1.343910000         6.385750000         23.94130000    
LM        1.343910000         6.385750000         23.94130000    
LM        6.719550000         1.691240000         24.15860000    
LM        1.343910000         1.691240000         24.15860000    
LM        4.031730000         1.691250000         24.15860000    
LM        4.031730000         3.142240000         26.31730000    
LM       -1.343910000         3.142250000         26.31730000    
LM        1.343910000         3.142250000         26.31730000    
LM        2.687820000         5.506090000         26.24930000    
LM       -2.687820000         5.506090000         26.24930000    
LM      -0.7699000000E-06     5.506090000         26.24930000    
LM        5.375640000         1.172290000         26.25030000    
LM       0.1810000000E-05     1.172290000         26.25030000    
LM        2.687820000         1.172290000         26.25030000    
LM        4.222725928         4.809339198         1.272807051    
LM        4.412733693         4.685798934         6.661260276    
LM        5.441717687         3.964898020         3.312560211    
LM       -1.409832185         4.787526387         1.173034230    
LM       -1.326545118         4.682760931         5.538209131    
LM       0.1210737921         3.785778600         3.423749895    
LM        1.257839215         4.654686787         1.241753912    
LM        1.378377454         4.586535467         5.586651406    
LM        2.746692693         3.923887734         3.357925741    
LM        2.758440392         6.942792285         1.112241494    
LM        2.831895559         6.839916574         5.749303054    
LM        4.144230261         6.271036756         3.204583434    
LM       -2.637172996         6.831600517         1.131767853    
LM       -2.662412808         6.952413722         5.444875683    
LM       -1.338447776         6.262069170         3.203576550    
LM      -0.1633997058         6.914010933         1.008335100    
LM      -0.4784180731E-01     7.100969774         5.713772614    
LM        1.408102342         6.212103746         3.376041332    
LM        5.361409970         2.389906340         1.135088714    
LM        5.364924762         2.429339207         5.655403592    
LM        6.850244282         1.528230022         3.397777285    
LM       0.3876609082E-01     2.315863416         1.196409695    
LM       -3.874101458         9.306019789         5.592466065    
LM        1.356243052         1.626948756         3.438874500    
LM        2.687577601         2.237646836         1.155161512    
LM       -1.323761558         9.272661498         5.433980868    
LM        4.035867256         1.564631704         3.385776659    
LM        2.802553895         8.631466075         6.931383756    
LM        1.228884017         6.128731672         6.962059085    
LM        4.835472356         5.067448852         8.100076888    
LM        3.035466137         3.544346733         6.671110602    
