58
-156694.8993 21604.54780 198046.31175 207908.36485
LM        4.031731700         4.891207937         21.67851200    
LM       -1.343910770         4.891207937         21.67851200    
LM        1.343909230         4.891197937         21.67851200    
LM        2.687820770         7.058567937         21.68060200    
LM       -2.687820770         7.058567937         21.68061200    
LM       0.9230123082E-05     7.058567937         21.68060200    
LM        5.375641540         2.363676707         21.83031200    
LM      -0.8000000018E-07     2.363676707         21.83031200    
LM        2.687820000         2.363676707         21.83031200    
LM        5.375640770         4.007960937         24.03431200    
LM      -0.7698769200E-06     4.007960937         24.03432200    
LM        2.687819230         4.007961937         24.03432200    
LM        4.031731040         6.385747937         23.94130200    
LM       -1.343910770         6.385747937         23.94130200    
LM        1.343909230         6.385747937         23.94130200    
LM        6.719551540         1.691236707         24.15856200    
LM        1.343910000         1.691236707         24.15857200    
LM        4.031730000         1.691246707         24.15856200    
LM        4.031730000         3.142236707         26.31732200    
LM       -1.343910000         3.142246707         26.31732200    
LM        1.343910000         3.142246707         26.31732200    
LM        2.687819230         5.506087937         26.24932200    
LM       -2.687820770         5.506087937         26.24932200    
LM      -0.7698769195E-06     5.506087937         26.24932200    
LM        5.375641540         1.172286707         26.25032200    
LM       0.1810000000E-05     1.172286707         26.25032200    
LM        2.687820000         1.172286707         26.25032200    
LM        4.222490722         4.794196674         1.270658042    
LM        6.718881130         2.801899603         6.039808124    
LM        5.465103046         3.929319947         3.343608528    
LM       -1.401165080         4.757306874         1.188982262    
LM        1.301762806         2.955401764         5.376453535    
LM       0.5668326111E-01     3.834216215         3.318949007    
LM        1.261977837         4.648686319         1.222938187    
LM        4.078059463         2.972190138         5.608924110    
LM        2.741203380         3.900071674         3.294190373    
LM        2.754063641         6.938883248         1.123153715    
LM        5.387783260         5.292222782         5.700913921    
LM        4.168784932         6.264370083         3.186105904    
LM       -2.626872313         6.827990843         1.186662043    
LM      -0.4816612110E-02     5.267301359         5.550736609    
LM       -1.338728961         6.189841392         3.255945697    
LM      -0.1523378482         6.904245444         1.036995372    
LM        2.599812146         5.399096997         5.681733134    
LM        1.406300228         6.198866184         3.395373208    
LM        5.360426404         2.382943370         1.139626487    
LM        8.110749977        0.6565210458         5.518897912    
LM        6.824499442         1.582120776         3.467680165    
LM       0.2992589769E-01     2.305650871         1.198275266    
LM       -1.205831140         7.666832642         5.637718984    
LM        1.303008692         1.415821726         3.299283926    
LM        2.677032172         2.221311114         1.150195819    
LM        1.349793795         7.645827564         5.553313269    
LM        4.041385290         1.497975760         3.349857849    
LM        5.471526668         7.014782081         6.961049123    
LM        3.861204926         4.453812142         6.983891274    
LM        7.504895450         3.865849193         7.049594184    
LM        5.931450552         1.502691633         6.951255246    
