58
-156696.2387 19218.42215 193977.49036 203151.87536
LM        4.031731700         4.891207937         21.67851200    
LM       -1.343910770         4.891207937         21.67851200    
LM        1.343909230         4.891197937         21.67851200    
LM        2.687820770         7.058567937         21.68060200    
LM       -2.687820770         7.058567937         21.68061200    
LM       0.9230123082E-05     7.058567937         21.68060200    
LM        5.375641540         2.363676707         21.83031200    
LM      -0.8000000018E-07     2.363676707         21.83031200    
LM        2.687820000         2.363676707         21.83031200    
LM        5.375640770         4.007960937         24.03431200    
LM      -0.7698769200E-06     4.007960937         24.03432200    
LM        2.687819230         4.007961937         24.03432200    
LM        4.031731040         6.385747937         23.94130200    
LM       -1.343910770         6.385747937         23.94130200    
LM        1.343909230         6.385747937         23.94130200    
LM        6.719551540         1.691236707         24.15856200    
LM        1.343910000         1.691236707         24.15857200    
LM        4.031730000         1.691246707         24.15856200    
LM        4.031730000         3.142236707         26.31732200    
LM       -1.343910000         3.142246707         26.31732200    
LM        1.343910000         3.142246707         26.31732200    
LM        2.687819230         5.506087937         26.24932200    
LM       -2.687820770         5.506087937         26.24932200    
LM      -0.7698769195E-06     5.506087937         26.24932200    
LM        5.375641540         1.172286707         26.25032200    
LM       0.1810000000E-05     1.172286707         26.25032200    
LM        2.687820000         1.172286707         26.25032200    
LM        4.211010138         4.791123826         1.261326074    
LM        4.376234945         2.496142611         7.273750354    
LM        5.449872512         3.945083150         3.293470660    
LM       -1.396945111         4.765935903         1.169105205    
LM       -1.432241612         3.105871831         5.656919265    
LM       0.4226932049E-01     3.852687366         3.363524876    
LM        1.256617487         4.651262417         1.227079130    
LM        1.315846709         2.994247097         5.390093045    
LM        2.755220999         3.936677683         3.315227920    
LM        2.759951176         6.940429098         1.109458789    
LM        2.778328495         5.176854041         5.679109187    
LM        4.178071344         6.270726317         3.192815216    
LM       -2.627728687         6.822933494         1.151206355    
LM       -2.592868111         5.484656673         5.492980955    
LM       -1.321851602         6.266068308         3.209106998    
LM      -0.1424980059         6.914837125         1.009376206    
LM       0.1389890754E-01     5.380415922         5.523840727    
LM        1.404600865         6.221429601         3.357650517    
LM        5.350801499         2.369383579         1.142483586    
LM        5.326632192        0.7831373099         5.658515002    
LM        6.832920677         1.557078703         3.380668897    
LM       0.3899084652E-01     2.315782539         1.191015368    
LM       -3.942720325         7.707836477         5.583347058    
LM        1.329418727         1.422466579         3.416873139    
LM        2.685594147         2.220813005         1.174894814    
LM       -1.391625254         7.736189078         5.478920926    
LM        3.996497224         1.586353628         3.469674893    
LM        2.765034096         6.846025709         6.871884424    
LM        3.690742907         3.994371293         7.143305898    
LM        5.106348987         2.266711537         8.638392306    
LM        3.031051767         1.372798145         7.054549142    
