58
-156695.0823 21251.98641 197320.08315 206642.29595
LM        4.031730000         4.891210000         21.67850000    
LM       -1.343910000         4.891210000         21.67850000    
LM        1.343910000         4.891200000         21.67850000    
LM        2.687820000         7.058570000         21.68060000    
LM       -2.687820000         7.058570000         21.68060000    
LM       0.9230100000E-05     7.058570000         21.68060000    
LM        5.375640000         2.363680000         21.83030000    
LM      -0.8000000000E-07     2.363680000         21.83030000    
LM        2.687820000         2.363680000         21.83030000    
LM        5.375640000         4.007960000         24.03430000    
LM      -0.7699000000E-06     4.007960000         24.03430000    
LM        2.687820000         4.007960000         24.03430000    
LM        4.031730000         6.385750000         23.94130000    
LM       -1.343910000         6.385750000         23.94130000    
LM        1.343910000         6.385750000         23.94130000    
LM        6.719550000         1.691240000         24.15860000    
LM        1.343910000         1.691240000         24.15860000    
LM        4.031730000         1.691250000         24.15860000    
LM        4.031730000         3.142240000         26.31730000    
LM       -1.343910000         3.142250000         26.31730000    
LM        1.343910000         3.142250000         26.31730000    
LM        2.687820000         5.506090000         26.24930000    
LM       -2.687820000         5.506090000         26.24930000    
LM      -0.7699000000E-06     5.506090000         26.24930000    
LM        5.375640000         1.172290000         26.25030000    
LM       0.1810000000E-05     1.172290000         26.25030000    
LM        2.687820000         1.172290000         26.25030000    
LM        4.227863598         4.800396848         1.273410472    
LM        6.834192733         3.022332169         5.842964138    
LM        5.485352372         3.935503605         3.345707089    
LM       -1.403383056         4.758881723         1.179547713    
LM        1.317867739         2.985760311         5.410577209    
LM       0.6448357382E-01     3.797148709         3.339524532    
LM        1.257146033         4.648325522         1.227864901    
LM        4.206623453         2.910962048         5.630619338    
LM        2.759274289         3.890718048         3.287885476    
LM        2.756964067         6.940831627         1.123092687    
LM        5.438869141         5.304638612         5.703394392    
LM        4.163393177         6.268122484         3.194668295    
LM       -2.632923678         6.835793955         1.168334755    
LM       0.7890945836E-02     5.280538390         5.455148872    
LM       -1.345534146         6.211716241         3.218395906    
LM      -0.1447755793         6.912950129         1.028962125    
LM        2.668442536         5.343033112         5.615484567    
LM        1.434759488         6.219235268         3.379396564    
LM        5.362261058         2.383692201         1.140766374    
LM        8.021830411        0.7005237854         5.604721787    
LM        6.822023807         1.581426108         3.497326393    
LM       0.2761163581E-01     2.303154256         1.203118972    
LM       -1.268585384         7.692004766         5.563425477    
LM        1.300254901         1.431418372         3.321071891    
LM        2.677516065         2.220957995         1.149296875    
LM        1.363270589         7.604395190         5.785959575    
LM        4.052358495         1.501525874         3.343565898    
LM        5.453922989         7.024144931         6.946595081    
LM        3.903150157         4.421231133         6.962654095    
LM        6.915351007         3.044838593         7.396846066    
LM        5.340461414        0.5286562133         7.342228855    
