58
-156695.3910 21193.52219 193253.92808 204456.52088
LM        4.031731700         4.891207937         21.67851200    
LM       -1.343910770         4.891207937         21.67851200    
LM        1.343909230         4.891197937         21.67851200    
LM        2.687820770         7.058567937         21.68060200    
LM       -2.687820770         7.058567937         21.68061200    
LM       0.9230123082E-05     7.058567937         21.68060200    
LM        5.375641540         2.363676707         21.83031200    
LM      -0.8000000018E-07     2.363676707         21.83031200    
LM        2.687820000         2.363676707         21.83031200    
LM        5.375640770         4.007960937         24.03431200    
LM      -0.7698769200E-06     4.007960937         24.03432200    
LM        2.687819230         4.007961937         24.03432200    
LM        4.031731040         6.385747937         23.94130200    
LM       -1.343910770         6.385747937         23.94130200    
LM        1.343909230         6.385747937         23.94130200    
LM        6.719551540         1.691236707         24.15856200    
LM        1.343910000         1.691236707         24.15857200    
LM        4.031730000         1.691246707         24.15856200    
LM        4.031730000         3.142236707         26.31732200    
LM       -1.343910000         3.142246707         26.31732200    
LM        1.343910000         3.142246707         26.31732200    
LM        2.687819230         5.506087937         26.24932200    
LM       -2.687820770         5.506087937         26.24932200    
LM      -0.7698769195E-06     5.506087937         26.24932200    
LM        5.375641540         1.172286707         26.25032200    
LM       0.1810000000E-05     1.172286707         26.25032200    
LM        2.687820000         1.172286707         26.25032200    
LM        4.233944219         4.824374222         1.296202124    
LM        5.365725794         1.181618511         7.710178372    
LM        5.503156442         3.938204122         3.307465138    
LM       -1.403004149         4.798406269         1.170725419    
LM      -0.7209026218E-01     2.416920532         5.609960053    
LM       0.1459190825         3.757830929         3.424517483    
LM        1.266999960         4.653679220         1.247516670    
LM        2.572499724         2.281232986         5.537574149    
LM        2.775098601         3.924980779         3.334842086    
LM        2.739049207         6.941871486         1.105132808    
LM        4.525760057         3.815839355         5.858487094    
LM        4.136327488         6.241420559         3.199950341    
LM       -2.644853504         6.854620984         1.120790033    
LM       -1.168261417         4.801229529         5.497377956    
LM       -1.368495811         6.315464912         3.199708032    
LM      -0.1516708212         6.914598759         1.011858932    
LM        1.397540048         4.730291506         5.624857757    
LM        1.360315968         6.213625113         3.384369725    
LM        5.353667508         2.385698005         1.132739679    
LM        6.406367570        0.3047173455         5.690564928    
LM        6.849010728         1.527984663         3.367595733    
LM       0.3159622065E-01     2.331540605         1.181434315    
LM       -2.711185820         7.029975130         5.470074455    
LM        1.291215239         1.586545314         3.369389400    
LM        2.692183895         2.224101918         1.173729763    
LM      -0.1316528041         7.037438514         5.632048719    
LM        4.083626208         1.554798965         3.440087310    
LM        3.796296264         5.762655528         5.624861694    
LM        5.018921706         2.790091044         7.533077076    
LM        6.105192911        0.7596928948         9.024000548    
LM        3.947970036        0.2416139069         7.366325348    
