58
-156695.2551 18061.37999 195195.03252 203059.59761
LM        4.031731700         4.891207937         21.67851200    
LM       -1.343910770         4.891207937         21.67851200    
LM        1.343909230         4.891197937         21.67851200    
LM        2.687820770         7.058567937         21.68060200    
LM       -2.687820770         7.058567937         21.68061200    
LM       0.9230123082E-05     7.058567937         21.68060200    
LM        5.375641540         2.363676707         21.83031200    
LM      -0.8000000018E-07     2.363676707         21.83031200    
LM        2.687820000         2.363676707         21.83031200    
LM        5.375640770         4.007960937         24.03431200    
LM      -0.7698769200E-06     4.007960937         24.03432200    
LM        2.687819230         4.007961937         24.03432200    
LM        4.031731040         6.385747937         23.94130200    
LM       -1.343910770         6.385747937         23.94130200    
LM        1.343909230         6.385747937         23.94130200    
LM        6.719551540         1.691236707         24.15856200    
LM        1.343910000         1.691236707         24.15857200    
LM        4.031730000         1.691246707         24.15856200    
LM        4.031730000         3.142236707         26.31732200    
LM       -1.343910000         3.142246707         26.31732200    
LM        1.343910000         3.142246707         26.31732200    
LM        2.687819230         5.506087937         26.24932200    
LM       -2.687820770         5.506087937         26.24932200    
LM      -0.7698769195E-06     5.506087937         26.24932200    
LM        5.375641540         1.172286707         26.25032200    
LM       0.1810000000E-05     1.172286707         26.25032200    
LM        2.687820000         1.172286707         26.25032200    
LM        4.205502662         4.792089369         1.267082124    
LM        4.179180274         3.367554628         6.660391978    
LM        5.439154282         3.934676789         3.299949595    
LM       -1.396529356         4.766670226         1.180974874    
LM       -1.453364595         3.130772232         5.662586486    
LM       0.5236845954E-01     3.837362340         3.340527654    
LM        1.262569142         4.648272842         1.225628500    
LM        1.356106318         3.056277214         5.489616357    
LM        2.728963662         3.905848188         3.333361723    
LM        2.758441391         6.939819319         1.115736734    
LM        2.787624145         5.294043116         5.654322006    
LM        4.158956937         6.263475047         3.197306033    
LM       -2.634963360         6.817872942         1.157699401    
LM       -2.665603071         5.474961525         5.504847343    
LM       -1.350269959         6.260451215         3.235190214    
LM      -0.1546546629         6.907814987         1.026476774    
LM      -0.2628947476E-01     5.489856786         5.574294655    
LM        1.383181013         6.206196324         3.360773519    
LM        5.358085468         2.379543764         1.133689801    
LM        5.302596067        0.8227246663         5.656888394    
LM        6.832739664         1.556301653         3.392325953    
LM       0.3656140781E-01     2.314578653         1.190449943    
LM       -3.914417020         7.744066403         5.600804515    
LM        1.332775072         1.487091253         3.446042596    
LM        2.680006040         2.225263149         1.163167126    
LM       -1.397856721         7.794038342         5.411254187    
LM        4.013330078         1.559171938         3.390018719    
LM        2.729890058         6.961009243         6.899940471    
LM       0.1954841130E-01     3.916118430         6.905055056    
LM        4.405599044         3.855595995         8.113506228    
LM        3.536104328         1.701656421         6.673389836    
