58
-156696.0843 21335.81553 193718.63008 204683.86188
LM        4.031731700         4.891207937         21.67851200    
LM       -1.343910770         4.891207937         21.67851200    
LM        1.343909230         4.891197937         21.67851200    
LM        2.687820770         7.058567937         21.68060200    
LM       -2.687820770         7.058567937         21.68061200    
LM       0.9230123082E-05     7.058567937         21.68060200    
LM        5.375641540         2.363676707         21.83031200    
LM      -0.8000000018E-07     2.363676707         21.83031200    
LM        2.687820000         2.363676707         21.83031200    
LM        5.375640770         4.007960937         24.03431200    
LM      -0.7698769200E-06     4.007960937         24.03432200    
LM        2.687819230         4.007961937         24.03432200    
LM        4.031731040         6.385747937         23.94130200    
LM       -1.343910770         6.385747937         23.94130200    
LM        1.343909230         6.385747937         23.94130200    
LM        6.719551540         1.691236707         24.15856200    
LM        1.343910000         1.691236707         24.15857200    
LM        4.031730000         1.691246707         24.15856200    
LM        4.031730000         3.142236707         26.31732200    
LM       -1.343910000         3.142246707         26.31732200    
LM        1.343910000         3.142246707         26.31732200    
LM        2.687819230         5.506087937         26.24932200    
LM       -2.687820770         5.506087937         26.24932200    
LM      -0.7698769195E-06     5.506087937         26.24932200    
LM        5.375641540         1.172286707         26.25032200    
LM       0.1810000000E-05     1.172286707         26.25032200    
LM        2.687820000         1.172286707         26.25032200    
LM        4.226866346         4.801961156         1.270599061    
LM        5.584932856         1.319032285         7.367128472    
LM        5.476327285         3.938207289         3.324910404    
LM       -1.400673977         4.779225097         1.171901887    
LM      -0.3992936795E-01     2.332517910         5.610309391    
LM       0.9513883185E-01     3.773131781         3.447680972    
LM        1.262075880         4.637006329         1.241793619    
LM        2.659023256         2.228546630         5.504722611    
LM        2.779077721         3.933398824         3.334756417    
LM        2.736956727         6.936834574         1.107554751    
LM        4.085305876         4.393717262         5.780392553    
LM        4.173459720         6.300266375         3.158359705    
LM       -2.635156612         6.849301314         1.131272898    
LM       -1.209015320         4.693567313         5.537523165    
LM       -1.346097384         6.270736532         3.213625308    
LM      -0.1421660111         6.909870200         1.014829720    
LM        1.389589753         4.642924911         5.608051963    
LM        1.357668876         6.196404027         3.366319927    
LM        5.357322570         2.385289756         1.133856738    
LM        6.692456993       -0.2096197956E-01     5.614318101    
LM        6.824184998         1.534940293         3.393069475    
LM       0.3199920178E-01     2.316145667         1.196662251    
LM       -2.715141700         6.970866564         5.491626435    
LM        1.283675700         1.520339175         3.400037418    
LM        2.686182995         2.227150853         1.172171648    
LM       0.4843565769E-01     6.977361214         5.510924743    
LM        4.081488591         1.538327373         3.407272057    
LM        5.459997214         5.470169203         6.873327507    
LM        4.989125447         2.803495336         7.081350773    
LM        6.345581121         1.097258082         8.719980843    
LM        4.211293345        0.2459786689         7.215375219    
