58
-156694.9802 19116.32210 195259.24236 204219.48338
LM        4.031731700         4.891207937         21.67851200    
LM       -1.343910770         4.891207937         21.67851200    
LM        1.343909230         4.891197937         21.67851200    
LM        2.687820770         7.058567937         21.68060200    
LM       -2.687820770         7.058567937         21.68061200    
LM       0.9230123082E-05     7.058567937         21.68060200    
LM        5.375641540         2.363676707         21.83031200    
LM      -0.8000000018E-07     2.363676707         21.83031200    
LM        2.687820000         2.363676707         21.83031200    
LM        5.375640770         4.007960937         24.03431200    
LM      -0.7698769200E-06     4.007960937         24.03432200    
LM        2.687819230         4.007961937         24.03432200    
LM        4.031731040         6.385747937         23.94130200    
LM       -1.343910770         6.385747937         23.94130200    
LM        1.343909230         6.385747937         23.94130200    
LM        6.719551540         1.691236707         24.15856200    
LM        1.343910000         1.691236707         24.15857200    
LM        4.031730000         1.691246707         24.15856200    
LM        4.031730000         3.142236707         26.31732200    
LM       -1.343910000         3.142246707         26.31732200    
LM        1.343910000         3.142246707         26.31732200    
LM        2.687819230         5.506087937         26.24932200    
LM       -2.687820770         5.506087937         26.24932200    
LM      -0.7698769195E-06     5.506087937         26.24932200    
LM        5.375641540         1.172286707         26.25032200    
LM       0.1810000000E-05     1.172286707         26.25032200    
LM        2.687820000         1.172286707         26.25032200    
LM        4.219813995         4.801174527         1.273294986    
LM        5.522958709         2.349296557         6.498267514    
LM        5.465540127         3.926055827         3.309572837    
LM       -1.398863286         4.772123555         1.174825067    
LM       0.1303962500E-01     2.370310503         5.580229536    
LM       0.1115827612         3.764254711         3.386241242    
LM        1.265104940         4.651321049         1.245381711    
LM        2.812750626         2.277481137         5.649121335    
LM        2.745299200         3.904812516         3.357837911    
LM        2.741589461         6.939139318         1.115983522    
LM        4.192497612         4.548321778         5.667170977    
LM        4.186930676         6.275891524         3.162669273    
LM       -2.635435284         6.842646072         1.144497177    
LM       -1.225661582         4.699923631         5.491239189    
LM       -1.326416224         6.265589937         3.215564859    
LM      -0.1405990461         6.918582821         1.008518617    
LM        1.383443460         4.750196203         5.691228152    
LM        1.400072897         6.196502988         3.405281758    
LM        5.356934312         2.380600526         1.134008075    
LM        6.706282417        0.7639286819E-01     5.706594447    
LM        6.839181188         1.531745919         3.407923738    
LM       0.2982944084E-01     2.319371014         1.194271311    
LM       -2.597957519         6.987415344         5.491109259    
LM        1.303804007         1.542985233         3.382273920    
LM        2.682568930         2.229942458         1.166096181    
LM       0.9766857096E-01     6.956660883         5.496642965    
LM        4.055911457         1.539035322         3.389532119    
LM        4.144761373         6.200624973         6.908086377    
LM        1.402417992         3.127372915         6.964706311    
LM        6.059459604         2.839500475         7.872622402    
LM        4.238857297         1.110747631         6.827545913    
