58
-156694.8088 19859.14660 196171.20566 205938.88537
LM        4.031731700         4.891207937         21.67851200    
LM       -1.343910770         4.891207937         21.67851200    
LM        1.343909230         4.891197937         21.67851200    
LM        2.687820770         7.058567937         21.68060200    
LM       -2.687820770         7.058567937         21.68061200    
LM       0.9230123082E-05     7.058567937         21.68060200    
LM        5.375641540         2.363676707         21.83031200    
LM      -0.8000000018E-07     2.363676707         21.83031200    
LM        2.687820000         2.363676707         21.83031200    
LM        5.375640770         4.007960937         24.03431200    
LM      -0.7698769200E-06     4.007960937         24.03432200    
LM        2.687819230         4.007961937         24.03432200    
LM        4.031731040         6.385747937         23.94130200    
LM       -1.343910770         6.385747937         23.94130200    
LM        1.343909230         6.385747937         23.94130200    
LM        6.719551540         1.691236707         24.15856200    
LM        1.343910000         1.691236707         24.15857200    
LM        4.031730000         1.691246707         24.15856200    
LM        4.031730000         3.142236707         26.31732200    
LM       -1.343910000         3.142246707         26.31732200    
LM        1.343910000         3.142246707         26.31732200    
LM        2.687819230         5.506087937         26.24932200    
LM       -2.687820770         5.506087937         26.24932200    
LM      -0.7698769195E-06     5.506087937         26.24932200    
LM        5.375641540         1.172286707         26.25032200    
LM       0.1810000000E-05     1.172286707         26.25032200    
LM        2.687820000         1.172286707         26.25032200    
LM        4.221250723         4.816867169         1.275865494    
LM        5.430536944         2.095675415         6.078806394    
LM        5.456086984         3.959958594         3.326176487    
LM       -1.403141420         4.782635979         1.171623821    
LM      -0.1560347108E-02     2.356431020         5.579726060    
LM       0.1417162503         3.763211272         3.415748221    
LM        1.264916106         4.642600107         1.239407009    
LM        2.749156664         2.242587172         5.611460724    
LM        2.760757501         3.920454160         3.350199475    
LM        2.735959719         6.944258324         1.110268017    
LM        4.237969674         4.501968839         5.804775843    
LM        4.172747224         6.290208572         3.158976880    
LM       -2.640965559         6.847898247         1.123232138    
LM       -1.202101047         4.740178768         5.476446138    
LM       -1.345106475         6.291511757         3.198164396    
LM      -0.1396160714         6.912423080         1.007719163    
LM        1.359070134         4.690243751         5.675197313    
LM        1.371631376         6.191820738         3.374541358    
LM        5.357970543         2.397097071         1.137216529    
LM        6.785475045       -0.6182414936E-01     5.573700382    
LM        6.825703120         1.546660090         3.390983391    
LM       0.3519529359E-01     2.316435577         1.196720184    
LM       -2.580115529         6.985789995         5.500459948    
LM        1.308831669         1.594747629         3.430213637    
LM        2.687631326         2.223484819         1.172749543    
LM       0.1203833603         6.937958372         5.524137211    
LM        4.074950858         1.553236787         3.411957646    
LM        4.215977358         6.276419391         6.930290653    
LM        2.655706025         3.757366139         6.991981702    
LM        6.603431333         2.595396489         7.136256369    
LM        4.284801878         1.004326111         6.902361685    
