58
-156694.8477 18537.32060 194857.81415 202977.00140
LM        4.031730000         4.891210000         21.67850000    
LM       -1.343910000         4.891210000         21.67850000    
LM        1.343910000         4.891200000         21.67850000    
LM        2.687820000         7.058570000         21.68060000    
LM       -2.687820000         7.058570000         21.68060000    
LM       0.9230100000E-05     7.058570000         21.68060000    
LM        5.375640000         2.363680000         21.83030000    
LM      -0.8000000000E-07     2.363680000         21.83030000    
LM        2.687820000         2.363680000         21.83030000    
LM        5.375640000         4.007960000         24.03430000    
LM      -0.7699000000E-06     4.007960000         24.03430000    
LM        2.687820000         4.007960000         24.03430000    
LM        4.031730000         6.385750000         23.94130000    
LM       -1.343910000         6.385750000         23.94130000    
LM        1.343910000         6.385750000         23.94130000    
LM        6.719550000         1.691240000         24.15860000    
LM        1.343910000         1.691240000         24.15860000    
LM        4.031730000         1.691250000         24.15860000    
LM        4.031730000         3.142240000         26.31730000    
LM       -1.343910000         3.142250000         26.31730000    
LM        1.343910000         3.142250000         26.31730000    
LM        2.687820000         5.506090000         26.24930000    
LM       -2.687820000         5.506090000         26.24930000    
LM      -0.7699000000E-06     5.506090000         26.24930000    
LM        5.375640000         1.172290000         26.25030000    
LM       0.1810000000E-05     1.172290000         26.25030000    
LM        2.687820000         1.172290000         26.25030000    
LM        4.179716926         4.761134797         1.237408683    
LM        3.193259580         2.628355125         6.727506680    
LM        5.392466248         3.941104935         3.271868261    
LM       -1.405437180         4.745674910         1.178282834    
LM       -2.641702270         2.419487440         5.586950364    
LM      -0.2362379422E-01     3.885982015         3.257843881    
LM        1.290485742         4.657498776         1.249194184    
LM       0.2901881403         2.414794441         5.363151503    
LM        2.598391466         3.793529433         3.465227865    
LM        2.767039135         6.927941172         1.128663149    
LM        1.623412768         4.632054321         5.911476723    
LM        4.170041964         6.306406819         3.314308820    
LM       -2.620708921         6.817461052         1.153985645    
LM       -3.840683195         4.796310288         5.532507779    
LM       -1.321797698         6.208733617         3.243425499    
LM      -0.1708177991         6.921997487         1.024828141    
LM       -1.217476867         4.758209763         5.572901540    
LM        1.409101500         6.166344015         3.431635558    
LM        5.345352910         2.365266361         1.130342135    
LM        4.089708236        0.1263317758         5.708485240    
LM        6.826969773         1.555178913         3.344466781    
LM       0.3483677394E-01     2.319145089         1.165222559    
LM       -5.070190431         7.114499536         5.627617036    
LM        1.296737060         1.351653708         3.304195746    
LM        2.681595750         2.241459529         1.167278918    
LM       -2.560569016         7.100338152         5.304494415    
LM        3.991041446         1.525834879         3.383452190    
LM        1.617395761         6.451736835         6.974358622    
LM       0.4807716388E-02     3.783669165         6.921410471    
LM        3.484457424         3.007240780         8.200815870    
LM        2.351450098         1.057992662         6.598721126    
