58
-156694.8389 19306.32192 197380.96520 205527.18761
LM        4.031730000         4.891210000         21.67850000    
LM       -1.343910000         4.891210000         21.67850000    
LM        1.343910000         4.891200000         21.67850000    
LM        2.687820000         7.058570000         21.68060000    
LM       -2.687820000         7.058570000         21.68060000    
LM       0.9230100000E-05     7.058570000         21.68060000    
LM        5.375640000         2.363680000         21.83030000    
LM      -0.8000000000E-07     2.363680000         21.83030000    
LM        2.687820000         2.363680000         21.83030000    
LM        5.375640000         4.007960000         24.03430000    
LM      -0.7699000000E-06     4.007960000         24.03430000    
LM        2.687820000         4.007960000         24.03430000    
LM        4.031730000         6.385750000         23.94130000    
LM       -1.343910000         6.385750000         23.94130000    
LM        1.343910000         6.385750000         23.94130000    
LM        6.719550000         1.691240000         24.15860000    
LM        1.343910000         1.691240000         24.15860000    
LM        4.031730000         1.691250000         24.15860000    
LM        4.031730000         3.142240000         26.31730000    
LM       -1.343910000         3.142250000         26.31730000    
LM        1.343910000         3.142250000         26.31730000    
LM        2.687820000         5.506090000         26.24930000    
LM       -2.687820000         5.506090000         26.24930000    
LM      -0.7699000000E-06     5.506090000         26.24930000    
LM        5.375640000         1.172290000         26.25030000    
LM       0.1810000000E-05     1.172290000         26.25030000    
LM        2.687820000         1.172290000         26.25030000    
LM        4.220264315         4.807505236         1.268790074    
LM        5.337095409         2.163014590         6.070417207    
LM        5.470959562         3.938928657         3.307142098    
LM       -1.396823445         4.783624242         1.178548722    
LM       0.7324901086E-01     2.349394933         5.535625441    
LM       0.1130255719         3.777683924         3.411996924    
LM        1.255716375         4.649774056         1.230728766    
LM        2.772163554         2.318098825         5.584403648    
LM        2.729379467         3.905797138         3.299904558    
LM        2.749517041         6.934030682         1.119184597    
LM        4.101669569         4.683211067         5.541870999    
LM        4.171756474         6.252674254         3.218111132    
LM       -2.632077845         6.836670640         1.167867445    
LM       -1.284585375         4.651262227         5.593609270    
LM       -1.335816891         6.248902151         3.261371541    
LM      -0.1483657792         6.904200695         1.026500732    
LM        1.311904143         4.736546301         5.662063354    
LM        1.366524470         6.200044157         3.383955589    
LM        5.355959763         2.378539085         1.133488076    
LM        6.749847137        0.2862636157E-01     5.602224376    
LM        6.831563992         1.546707786         3.375133959    
LM       0.3541830034E-01     2.316998423         1.189521505    
LM       -2.539866359         6.978063508         5.564231325    
LM        1.320333640         1.552437179         3.375105677    
LM        2.685433157         2.212654835         1.165191310    
LM       0.6441606704E-01     6.964088182         5.568658251    
LM        4.067152335         1.540235166         3.419221928    
LM        4.145090326         7.723049275         6.927249780    
LM        2.724990381         3.919842640         6.937482993    
LM        6.028583363         3.288723702         7.072899069    
LM        4.498091227        0.8934954429         6.975461713    
