58
-156695.1709 18429.89863 195682.83363 203122.04153
LM        4.031731700         4.891207937         21.67851200    
LM       -1.343910770         4.891207937         21.67851200    
LM        1.343909230         4.891197937         21.67851200    
LM        2.687820770         7.058567937         21.68060200    
LM       -2.687820770         7.058567937         21.68061200    
LM       0.9230123082E-05     7.058567937         21.68060200    
LM        5.375641540         2.363676707         21.83031200    
LM      -0.8000000018E-07     2.363676707         21.83031200    
LM        2.687820000         2.363676707         21.83031200    
LM        5.375640770         4.007960937         24.03431200    
LM      -0.7698769200E-06     4.007960937         24.03432200    
LM        2.687819230         4.007961937         24.03432200    
LM        4.031731040         6.385747937         23.94130200    
LM       -1.343910770         6.385747937         23.94130200    
LM        1.343909230         6.385747937         23.94130200    
LM        6.719551540         1.691236707         24.15856200    
LM        1.343910000         1.691236707         24.15857200    
LM        4.031730000         1.691246707         24.15856200    
LM        4.031730000         3.142236707         26.31732200    
LM       -1.343910000         3.142246707         26.31732200    
LM        1.343910000         3.142246707         26.31732200    
LM        2.687819230         5.506087937         26.24932200    
LM       -2.687820770         5.506087937         26.24932200    
LM      -0.7698769195E-06     5.506087937         26.24932200    
LM        5.375641540         1.172286707         26.25032200    
LM       0.1810000000E-05     1.172286707         26.25032200    
LM        2.687820000         1.172286707         26.25032200    
LM        4.214344956         4.796041472         1.270170093    
LM        4.287995686         3.475025633         6.673901319    
LM        5.447226539         3.934259974         3.305618921    
LM       -1.396783485         4.766957720         1.179157603    
LM       -1.417576341         3.146311629         5.652953294    
LM       0.3533798712E-01     3.834345406         3.361510960    
LM        1.255224900         4.651418921         1.228337208    
LM        1.356224589         3.059652693         5.456227399    
LM        2.741157479         3.908617917         3.307333289    
LM        2.765801086         6.936288061         1.114672779    
LM        2.821922617         5.335723240         5.635152661    
LM        4.149737492         6.265169488         3.244190811    
LM       -2.631860729         6.818191989         1.160381771    
LM       -2.644293786         5.476785383         5.516514742    
LM       -1.346811687         6.259869371         3.236586850    
LM      -0.1577257830         6.907508864         1.024591305    
LM      -0.4032439025E-01     5.492502905         5.578391071    
LM        1.388219228         6.216282799         3.357059865    
LM        5.358577709         2.379921600         1.134156161    
LM        5.313857958        0.8018715688         5.649552373    
LM        6.839092745         1.549091007         3.380032975    
LM       0.3753596825E-01     2.316884832         1.188074430    
LM       -3.892514832         7.725556108         5.602605486    
LM        1.340218450         1.481597008         3.442212468    
LM        2.679362778         2.222533211         1.160134659    
LM       -1.367485461         7.815652234         5.427213899    
LM        4.014131464         1.560484846         3.390208974    
LM        2.775072510         8.464909741         6.940658878    
LM        1.311416273         4.633095214         6.871222631    
LM        4.509018276         3.942611889         8.136856082    
LM        3.574777131         1.830399103         6.612077719    
