58
-156694.7025 19122.63427 195180.96573 203689.82055
LM        4.031731700         4.891207937         21.67851200    
LM       -1.343910770         4.891207937         21.67851200    
LM        1.343909230         4.891197937         21.67851200    
LM        2.687820770         7.058567937         21.68060200    
LM       -2.687820770         7.058567937         21.68061200    
LM       0.9230123082E-05     7.058567937         21.68060200    
LM        5.375641540         2.363676707         21.83031200    
LM      -0.8000000018E-07     2.363676707         21.83031200    
LM        2.687820000         2.363676707         21.83031200    
LM        5.375640770         4.007960937         24.03431200    
LM      -0.7698769200E-06     4.007960937         24.03432200    
LM        2.687819230         4.007961937         24.03432200    
LM        4.031731040         6.385747937         23.94130200    
LM       -1.343910770         6.385747937         23.94130200    
LM        1.343909230         6.385747937         23.94130200    
LM        6.719551540         1.691236707         24.15856200    
LM        1.343910000         1.691236707         24.15857200    
LM        4.031730000         1.691246707         24.15856200    
LM        4.031730000         3.142236707         26.31732200    
LM       -1.343910000         3.142246707         26.31732200    
LM        1.343910000         3.142246707         26.31732200    
LM        2.687819230         5.506087937         26.24932200    
LM       -2.687820770         5.506087937         26.24932200    
LM      -0.7698769195E-06     5.506087937         26.24932200    
LM        5.375641540         1.172286707         26.25032200    
LM       0.1810000000E-05     1.172286707         26.25032200    
LM        2.687820000         1.172286707         26.25032200    
LM        4.226768019         4.806836789         1.278568855    
LM        5.540578077         2.524609719         6.659108807    
LM        5.479509817         3.924120554         3.309736420    
LM       -1.398909954         4.786136966         1.180484393    
LM      -0.3035227227E-01     2.357951092         5.665435009    
LM       0.1322384280         3.715807323         3.431392183    
LM        1.260231029         4.634685923         1.236451655    
LM        2.782499509         2.302174538         5.597585362    
LM        2.757779886         3.897806712         3.326630448    
LM        2.747962227         6.936842410         1.109397640    
LM        4.173812951         4.498857672         5.658742783    
LM        4.176628371         6.283305644         3.196715638    
LM       -2.634183049         6.844186959         1.162100096    
LM       -1.221766969         4.676992333         5.520362304    
LM       -1.353593917         6.274472992         3.257952615    
LM      -0.1451334951         6.902756518         1.029367782    
LM        1.364966073         4.682099419         5.573506836    
LM        1.377172839         6.205330310         3.344443179    
LM        5.359297218         2.384116421         1.132553427    
LM        6.755158249       -0.4205380487E-01     5.602385321    
LM        6.840468511         1.528734698         3.416553311    
LM       0.2658335334E-01     2.315204392         1.197165771    
LM       -2.546022966         6.966477681         5.630323569    
LM        1.298237108         1.521506466         3.377294356    
LM        2.682313824         2.220042995         1.161222035    
LM       0.9166210608E-01     6.957556757         5.473231318    
LM        4.061050311         1.538841780         3.386313184    
LM        4.058936238         6.062879870         6.938085270    
LM        1.438164750         1.679265404         6.987965217    
LM        5.813109763         3.058958432         8.088757492    
LM        4.921085710        0.8604603343         6.754108589    
