58
-156694.9123 19343.72054 194519.67379 203918.24484
LM        4.031730000         4.891210000         21.67850000    
LM       -1.343910000         4.891210000         21.67850000    
LM        1.343910000         4.891200000         21.67850000    
LM        2.687820000         7.058570000         21.68060000    
LM       -2.687820000         7.058570000         21.68060000    
LM       0.9230100000E-05     7.058570000         21.68060000    
LM        5.375640000         2.363680000         21.83030000    
LM      -0.8000000000E-07     2.363680000         21.83030000    
LM        2.687820000         2.363680000         21.83030000    
LM        5.375640000         4.007960000         24.03430000    
LM      -0.7699000000E-06     4.007960000         24.03430000    
LM        2.687820000         4.007960000         24.03430000    
LM        4.031730000         6.385750000         23.94130000    
LM       -1.343910000         6.385750000         23.94130000    
LM        1.343910000         6.385750000         23.94130000    
LM        6.719550000         1.691240000         24.15860000    
LM        1.343910000         1.691240000         24.15860000    
LM        4.031730000         1.691250000         24.15860000    
LM        4.031730000         3.142240000         26.31730000    
LM       -1.343910000         3.142250000         26.31730000    
LM        1.343910000         3.142250000         26.31730000    
LM        2.687820000         5.506090000         26.24930000    
LM       -2.687820000         5.506090000         26.24930000    
LM      -0.7699000000E-06     5.506090000         26.24930000    
LM        5.375640000         1.172290000         26.25030000    
LM       0.1810000000E-05     1.172290000         26.25030000    
LM        2.687820000         1.172290000         26.25030000    
LM        4.225730237         4.801017396         1.280586156    
LM        5.751359739         2.302888238         6.685055058    
LM        5.449049830         3.930721068         3.341907443    
LM       -1.404915610         4.767309576         1.176892686    
LM       0.5622918585E-02     2.360096211         5.546121656    
LM       0.1248858138         3.779407814         3.413653167    
LM        1.263000001         4.651607066         1.245958941    
LM        2.718913092         2.222176758         5.573344873    
LM        2.756833125         3.911219558         3.356085876    
LM        2.742274534         6.938507628         1.109115338    
LM        4.244741054         4.457353438         5.837150589    
LM        4.185717101         6.279227101         3.155233932    
LM       -2.631422852         6.843084701         1.140134277    
LM       -1.214990319         4.678252762         5.515739146    
LM       -1.325805257         6.250590634         3.214112693    
LM      -0.1437654348         6.918985699         1.006421448    
LM        1.363183492         4.721234026         5.684949738    
LM        1.401940824         6.191983377         3.403335469    
LM        5.359110346         2.389432771         1.135107884    
LM        6.744282462        0.4370580492E-01     5.671884831    
LM        6.829420893         1.524882964         3.380061015    
LM       0.3398980922E-01     2.321672323         1.195102990    
LM       -2.599226288         6.954574773         5.488439063    
LM        1.313285469         1.545085225         3.398809665    
LM        2.684306450         2.233166661         1.162317505    
LM       0.9522335328E-01     6.955401970         5.489247796    
LM        4.059456741         1.529065144         3.374382205    
LM        4.195876857         6.262018649         6.929435130    
LM        2.630692764         3.744472361         6.979138656    
LM        6.228976753         2.700881626         8.101899286    
LM        4.387509316         1.151288365         6.763084093    
