58
-156694.7806 18991.21659 194644.30681 203941.64149
LM        4.031731700         4.891207937         21.67851200    
LM       -1.343910770         4.891207937         21.67851200    
LM        1.343909230         4.891197937         21.67851200    
LM        2.687820770         7.058567937         21.68060200    
LM       -2.687820770         7.058567937         21.68061200    
LM       0.9230123082E-05     7.058567937         21.68060200    
LM        5.375641540         2.363676707         21.83031200    
LM      -0.8000000018E-07     2.363676707         21.83031200    
LM        2.687820000         2.363676707         21.83031200    
LM        5.375640770         4.007960937         24.03431200    
LM      -0.7698769200E-06     4.007960937         24.03432200    
LM        2.687819230         4.007961937         24.03432200    
LM        4.031731040         6.385747937         23.94130200    
LM       -1.343910770         6.385747937         23.94130200    
LM        1.343909230         6.385747937         23.94130200    
LM        6.719551540         1.691236707         24.15856200    
LM        1.343910000         1.691236707         24.15857200    
LM        4.031730000         1.691246707         24.15856200    
LM        4.031730000         3.142236707         26.31732200    
LM       -1.343910000         3.142246707         26.31732200    
LM        1.343910000         3.142246707         26.31732200    
LM        2.687819230         5.506087937         26.24932200    
LM       -2.687820770         5.506087937         26.24932200    
LM      -0.7698769195E-06     5.506087937         26.24932200    
LM        5.375641540         1.172286707         26.25032200    
LM       0.1810000000E-05     1.172286707         26.25032200    
LM        2.687820000         1.172286707         26.25032200    
LM        4.228394999         4.804265946         1.282283447    
LM        5.637158289         2.454736886         6.651927487    
LM        5.475845588         3.927101655         3.323542367    
LM       -1.400936947         4.764156193         1.166141127    
LM       0.1222592029E-01     2.376073431         5.592707044    
LM       0.1244885915         3.766782676         3.397711265    
LM        1.265810090         4.656483414         1.247583830    
LM        2.782379536         2.263514103         5.601995471    
LM        2.750325639         3.905727676         3.360937152    
LM        2.743655035         6.936421815         1.122826943    
LM        4.261258636         4.546389494         5.698675213    
LM        4.185719689         6.270838864         3.178943606    
LM       -2.637074200         6.843427324         1.135569377    
LM       -1.188121325         4.741363113         5.500099953    
LM       -1.310495357         6.256981925         3.187454857    
LM      -0.1403930979         6.926330866        0.9930195964    
LM        1.400036938         4.766612058         5.819811699    
LM        1.398299691         6.178045769         3.431844315    
LM        5.358771562         2.383287458         1.135320226    
LM        6.791842592        0.8107264083E-01     5.664149143    
LM        6.841608267         1.533385690         3.402700654    
LM       0.3046676826E-01     2.323653032         1.192395881    
LM       -2.590810881         6.982092740         5.436365822    
LM        1.303127593         1.576822080         3.379979711    
LM        2.682391386         2.232782810         1.165428537    
LM       0.8128250997E-01     6.984507735         5.487070942    
LM        4.068875656         1.536127415         3.380643330    
LM        2.995257324         5.532987440         6.996610542    
LM        1.393983461         3.009358766         6.984046579    
LM        6.085410411         2.890846325         8.067837355    
LM        4.370655864         1.195446792         6.757174010    
