58
-156696.0283 19676.64932 195369.89360 204124.74410
LM        4.031731700         4.891207937         21.67851200    
LM       -1.343910770         4.891207937         21.67851200    
LM        1.343909230         4.891197937         21.67851200    
LM        2.687820770         7.058567937         21.68060200    
LM       -2.687820770         7.058567937         21.68061200    
LM       0.9230123082E-05     7.058567937         21.68060200    
LM        5.375641540         2.363676707         21.83031200    
LM      -0.8000000018E-07     2.363676707         21.83031200    
LM        2.687820000         2.363676707         21.83031200    
LM        5.375640770         4.007960937         24.03431200    
LM      -0.7698769200E-06     4.007960937         24.03432200    
LM        2.687819230         4.007961937         24.03432200    
LM        4.031731040         6.385747937         23.94130200    
LM       -1.343910770         6.385747937         23.94130200    
LM        1.343909230         6.385747937         23.94130200    
LM        6.719551540         1.691236707         24.15856200    
LM        1.343910000         1.691236707         24.15857200    
LM        4.031730000         1.691246707         24.15856200    
LM        4.031730000         3.142236707         26.31732200    
LM       -1.343910000         3.142246707         26.31732200    
LM        1.343910000         3.142246707         26.31732200    
LM        2.687819230         5.506087937         26.24932200    
LM       -2.687820770         5.506087937         26.24932200    
LM      -0.7698769195E-06     5.506087937         26.24932200    
LM        5.375641540         1.172286707         26.25032200    
LM       0.1810000000E-05     1.172286707         26.25032200    
LM        2.687820000         1.172286707         26.25032200    
LM        4.231368684         4.805803912         1.276645738    
LM        5.607748958         2.886123115         6.722695675    
LM        5.498036884         3.915616277         3.303161726    
LM       -1.399864530         4.780249632         1.165434850    
LM      -0.3309010209E-01     2.389487717         5.656516353    
LM       0.1394957401         3.742692467         3.433267066    
LM        1.258479581         4.650344267         1.241249554    
LM        2.751737280         2.329375295         5.546728826    
LM        2.748882977         3.907773409         3.322246971    
LM        2.747487552         6.934964784         1.119669522    
LM        4.151313326         4.606412046         5.595877922    
LM        4.180701840         6.258489875         3.192385152    
LM       -2.637157578         6.842460637         1.138814272    
LM       -1.258450339         4.716877454         5.501676576    
LM       -1.345189769         6.265392546         3.210201117    
LM      -0.1470417643         6.910854646         1.019075370    
LM        1.428323589         4.662831075         5.653914690    
LM        1.378198082         6.199591396         3.402160754    
LM        5.359061107         2.376692838         1.131473167    
LM        6.792305508       -0.2789982518E-01     5.619939716    
LM        6.840873355         1.531185707         3.402446752    
LM       0.3116571362E-01     2.319538384         1.194466263    
LM       -2.589377166         7.016897849         5.500415148    
LM        1.318771892         1.581842750         3.394533603    
LM        2.683660849         2.225120741         1.164480138    
LM       0.1787028199         7.091632382         5.758286478    
LM        4.075073790         1.520371146         3.391988579    
LM        4.122218701         7.730358186         6.951737554    
LM       0.8687393670E-01     5.801042863         6.895359479    
LM        5.975437023         3.352857088         8.154397336    
LM        4.420200759         1.586816765         6.730492747    
