58
-156696.0436 20906.75951 193700.55085 205068.96727
LM        4.031731700         4.891207937         21.67851200    
LM       -1.343910770         4.891207937         21.67851200    
LM        1.343909230         4.891197937         21.67851200    
LM        2.687820770         7.058567937         21.68060200    
LM       -2.687820770         7.058567937         21.68061200    
LM       0.9230123082E-05     7.058567937         21.68060200    
LM        5.375641540         2.363676707         21.83031200    
LM      -0.8000000018E-07     2.363676707         21.83031200    
LM        2.687820000         2.363676707         21.83031200    
LM        5.375640770         4.007960937         24.03431200    
LM      -0.7698769200E-06     4.007960937         24.03432200    
LM        2.687819230         4.007961937         24.03432200    
LM        4.031731040         6.385747937         23.94130200    
LM       -1.343910770         6.385747937         23.94130200    
LM        1.343909230         6.385747937         23.94130200    
LM        6.719551540         1.691236707         24.15856200    
LM        1.343910000         1.691236707         24.15857200    
LM        4.031730000         1.691246707         24.15856200    
LM        4.031730000         3.142236707         26.31732200    
LM       -1.343910000         3.142246707         26.31732200    
LM        1.343910000         3.142246707         26.31732200    
LM        2.687819230         5.506087937         26.24932200    
LM       -2.687820770         5.506087937         26.24932200    
LM      -0.7698769195E-06     5.506087937         26.24932200    
LM        5.375641540         1.172286707         26.25032200    
LM       0.1810000000E-05     1.172286707         26.25032200    
LM        2.687820000         1.172286707         26.25032200    
LM        4.235441643         4.805621158         1.270754126    
LM        5.842897296         1.778553244         7.239884262    
LM        5.499741623         3.936388602         3.310625983    
LM       -1.402641937         4.782042797         1.157232092    
LM      -0.3351097736E-01     2.353322138         5.652834134    
LM       0.1522821394         3.737093730         3.470374422    
LM        1.254422557         4.649546483         1.247758920    
LM        2.675226797         2.241862348         5.495087656    
LM        2.777473286         3.928189845         3.323558775    
LM        2.741958084         6.934361480         1.119897819    
LM        4.250457574         4.489348564         5.661258792    
LM        4.179776853         6.258708977         3.178961930    
LM       -2.639846963         6.847957782         1.123585211    
LM       -1.154054678         4.769394534         5.477479202    
LM       -1.327457417         6.285926514         3.183744092    
LM      -0.1388997396         6.919163050        0.9972380051    
LM        1.396986396         4.642359260         5.684131285    
LM        1.380854925         6.193346867         3.409836506    
LM        5.362454009         2.381995605         1.134871076    
LM        6.777421854        0.9294006582E-02     5.667543837    
LM        6.841998643         1.518222869         3.418625753    
LM       0.3003214242E-01     2.319805672         1.202249755    
LM       -2.636451392         6.965067590         5.461092047    
LM        1.292812556         1.570450815         3.401005091    
LM        2.685122826         2.224656416         1.170696201    
LM       0.2908801119E-01     7.029203911         5.537896217    
LM        4.105472377         1.543064113         3.404263456    
LM        2.857740764         5.316692820         6.952146906    
LM        5.152938941         3.273573483         7.102724579    
LM        6.615943034         1.550921476         8.581518950    
LM        4.434431250        0.7057103961         7.078588285    
