58
-156695.1710 18429.89304 195682.95041 203122.15764
LM        4.031730000         4.891210000         21.67850000    
LM       -1.343910000         4.891210000         21.67850000    
LM        1.343910000         4.891200000         21.67850000    
LM        2.687820000         7.058570000         21.68060000    
LM       -2.687820000         7.058570000         21.68060000    
LM       0.9230100000E-05     7.058570000         21.68060000    
LM        5.375640000         2.363680000         21.83030000    
LM      -0.8000000000E-07     2.363680000         21.83030000    
LM        2.687820000         2.363680000         21.83030000    
LM        5.375640000         4.007960000         24.03430000    
LM      -0.7699000000E-06     4.007960000         24.03430000    
LM        2.687820000         4.007960000         24.03430000    
LM        4.031730000         6.385750000         23.94130000    
LM       -1.343910000         6.385750000         23.94130000    
LM        1.343910000         6.385750000         23.94130000    
LM        6.719550000         1.691240000         24.15860000    
LM        1.343910000         1.691240000         24.15860000    
LM        4.031730000         1.691250000         24.15860000    
LM        4.031730000         3.142240000         26.31730000    
LM       -1.343910000         3.142250000         26.31730000    
LM        1.343910000         3.142250000         26.31730000    
LM        2.687820000         5.506090000         26.24930000    
LM       -2.687820000         5.506090000         26.24930000    
LM      -0.7699000000E-06     5.506090000         26.24930000    
LM        5.375640000         1.172290000         26.25030000    
LM       0.1810000000E-05     1.172290000         26.25030000    
LM        2.687820000         1.172290000         26.25030000    
LM        4.214344482         4.796042350         1.270151673    
LM        4.287996008         3.475025102         6.673882887    
LM        5.447226329         3.934259888         3.305599848    
LM       -1.396781762         4.766960296         1.179139697    
LM       -1.417576031         3.146311069         5.652934320    
LM       0.3533866500E-01     3.834345114         3.361490837    
LM        1.255225689         4.651419960         1.228315236    
LM        1.356225015         3.059652389         5.456208179    
LM        2.741156922         3.908617777         3.307312756    
LM        2.765802405         6.936287683         1.114654604    
LM        2.821922734         5.335722649         5.635133175    
LM        4.149737265         6.265169665         3.244172655    
LM       -2.631860601         6.818190297         1.160368441    
LM       -2.644293673         5.476784443         5.516497321    
LM       -1.346812141         6.259869133         3.236571150    
LM      -0.1577273397         6.907503424         1.024580247    
LM      -0.4032389182E-01     5.492502412         5.578373111    
LM        1.388218551         6.216282880         3.357039816    
LM        5.358577999         2.379924340         1.134136967    
LM        5.313858247        0.8018711740         5.649532561    
LM        6.839093094         1.549091144         3.380012908    
LM       0.3753676303E-01     2.316885545         1.188054103    
LM       -3.892514551         7.725555712         5.602586325    
LM        1.340218203         1.481596889         3.442192812    
LM        2.679363172         2.222533659         1.160114764    
LM       -1.367484837         7.815652285         5.427195791    
LM        4.014131530         1.560484440         3.390188563    
LM        2.775072617         8.464909096         6.940639524    
LM        1.311416922         4.633094522         6.871203955    
LM        4.509018510         3.942611400         8.136837674    
LM        3.574777416         1.830398650         6.612059664    
