58
-156695.9321 20280.03700 194606.02691 204140.62851
LM        4.031730000         4.891210000         21.67850000    
LM       -1.343910000         4.891210000         21.67850000    
LM        1.343910000         4.891200000         21.67850000    
LM        2.687820000         7.058570000         21.68060000    
LM       -2.687820000         7.058570000         21.68060000    
LM       0.9230100000E-05     7.058570000         21.68060000    
LM        5.375640000         2.363680000         21.83030000    
LM      -0.8000000000E-07     2.363680000         21.83030000    
LM        2.687820000         2.363680000         21.83030000    
LM        5.375640000         4.007960000         24.03430000    
LM      -0.7699000000E-06     4.007960000         24.03430000    
LM        2.687820000         4.007960000         24.03430000    
LM        4.031730000         6.385750000         23.94130000    
LM       -1.343910000         6.385750000         23.94130000    
LM        1.343910000         6.385750000         23.94130000    
LM        6.719550000         1.691240000         24.15860000    
LM        1.343910000         1.691240000         24.15860000    
LM        4.031730000         1.691250000         24.15860000    
LM        4.031730000         3.142240000         26.31730000    
LM       -1.343910000         3.142250000         26.31730000    
LM        1.343910000         3.142250000         26.31730000    
LM        2.687820000         5.506090000         26.24930000    
LM       -2.687820000         5.506090000         26.24930000    
LM      -0.7699000000E-06     5.506090000         26.24930000    
LM        5.375640000         1.172290000         26.25030000    
LM       0.1810000000E-05     1.172290000         26.25030000    
LM        2.687820000         1.172290000         26.25030000    
LM        4.205641965         4.793888759         1.254852017    
LM        5.956900105         2.621866802         6.874710531    
LM        5.430759573         3.940078491         3.304594972    
LM       -1.399158690         4.778988775         1.185002214    
LM       0.2413800431E-01     2.420934239         5.538312534    
LM       0.6111450994E-01     3.828958868         3.377679041    
LM        1.262166968         4.648524837         1.233917719    
LM        2.753113647         2.243149261         5.591864595    
LM        2.705925525         3.899852705         3.339820266    
LM        2.742715702         6.946963486         1.097285391    
LM        3.968777616         4.745179300         5.562834063    
LM        4.182162803         6.270444559         3.135410021    
LM       -2.626404770         6.837589614         1.146354814    
LM       -1.367437050         4.680404335         5.545115333    
LM       -1.340574971         6.261865142         3.239684623    
LM      -0.1432999309         6.907508058         1.025261910    
LM        1.254546104         4.772284965         5.580041029    
LM        1.395449714         6.228041847         3.358005270    
LM        5.356097090         2.377366558         1.134090860    
LM        6.193476295        0.3796398332         5.780126611    
LM        6.841853374         1.533599010         3.396040552    
LM       0.3331639247E-01     2.319106480         1.195480164    
LM       -2.719953512         7.035884667         5.476191664    
LM        1.313168795         1.537551257         3.385467745    
LM        2.687492060         2.219982473         1.169477815    
LM      -0.2174503873         6.796087570         6.266808828    
LM        4.076562705         1.535677394         3.423807566    
LM        3.787378437         6.433620951         6.767296001    
LM        4.283177091         2.958240277         6.838236255    
LM        6.556516418         2.590466602         8.305864683    
LM        3.742368215       -0.1234312841         7.805336616    
