58
-156694.8369 19239.88746 195379.51994 203584.41693
LM        4.031731700         4.891207937         21.67851200    
LM       -1.343910770         4.891207937         21.67851200    
LM        1.343909230         4.891197937         21.67851200    
LM        2.687820770         7.058567937         21.68060200    
LM       -2.687820770         7.058567937         21.68061200    
LM       0.9230123082E-05     7.058567937         21.68060200    
LM        5.375641540         2.363676707         21.83031200    
LM      -0.8000000018E-07     2.363676707         21.83031200    
LM        2.687820000         2.363676707         21.83031200    
LM        5.375640770         4.007960937         24.03431200    
LM      -0.7698769200E-06     4.007960937         24.03432200    
LM        2.687819230         4.007961937         24.03432200    
LM        4.031731040         6.385747937         23.94130200    
LM       -1.343910770         6.385747937         23.94130200    
LM        1.343909230         6.385747937         23.94130200    
LM        6.719551540         1.691236707         24.15856200    
LM        1.343910000         1.691236707         24.15857200    
LM        4.031730000         1.691246707         24.15856200    
LM        4.031730000         3.142236707         26.31732200    
LM       -1.343910000         3.142246707         26.31732200    
LM        1.343910000         3.142246707         26.31732200    
LM        2.687819230         5.506087937         26.24932200    
LM       -2.687820770         5.506087937         26.24932200    
LM      -0.7698769195E-06     5.506087937         26.24932200    
LM        5.375641540         1.172286707         26.25032200    
LM       0.1810000000E-05     1.172286707         26.25032200    
LM        2.687820000         1.172286707         26.25032200    
LM        4.234707142         4.796872634         1.273094781    
LM        5.510990250         2.581806004         6.676765232    
LM        5.485967426         3.909725064         3.316213546    
LM       -1.405932406         4.778560005         1.168559563    
LM      -0.2002165238E-01     2.382524277         5.655578946    
LM       0.1558959334         3.723868359         3.474231365    
LM        1.249192301         4.652330435         1.250989240    
LM        2.734134829         2.273104971         5.499571017    
LM        2.763240876         3.912166975         3.325009979    
LM        2.749389460         6.933005987         1.120072167    
LM        4.180344609         4.530455262         5.670439391    
LM        4.202205543         6.244681181         3.162993263    
LM       -2.629949390         6.841198850         1.144946697    
LM       -1.252905099         4.693782638         5.524839749    
LM       -1.322746581         6.252387865         3.224971071    
LM      -0.1451862160         6.917784233         1.007944631    
LM        1.333855398         4.680232652         5.661154041    
LM        1.408927708         6.197420986         3.413939976    
LM        5.367782811         2.381096603         1.128672110    
LM        6.673917475        0.4853459980E-01     5.795607057    
LM        6.853795895         1.500961674         3.433040679    
LM       0.2895912157E-01     2.317840733         1.206132578    
LM       -2.611589035         6.951582930         5.499782538    
LM        1.317296148         1.563257744         3.390434483    
LM        2.680352235         2.232316625         1.156196394    
LM       0.3893101973E-01     6.982335601         5.467408361    
LM        4.084289026         1.520857171         3.343849176    
LM        4.233383477         7.784811626         6.955592009    
LM        2.753070041         5.267570119         6.982320787    
LM        5.877492002         3.001742539         8.121459055    
LM        4.269803287         1.281999196         6.682125789    
