58
-156696.4156 23589.12236 195469.15366 209022.87516
LM        4.031731700         4.891207937         21.67851200    
LM       -1.343910770         4.891207937         21.67851200    
LM        1.343909230         4.891197937         21.67851200    
LM        2.687820770         7.058567937         21.68060200    
LM       -2.687820770         7.058567937         21.68061200    
LM       0.9230123082E-05     7.058567937         21.68060200    
LM        5.375641540         2.363676707         21.83031200    
LM      -0.8000000018E-07     2.363676707         21.83031200    
LM        2.687820000         2.363676707         21.83031200    
LM        5.375640770         4.007960937         24.03431200    
LM      -0.7698769200E-06     4.007960937         24.03432200    
LM        2.687819230         4.007961937         24.03432200    
LM        4.031731040         6.385747937         23.94130200    
LM       -1.343910770         6.385747937         23.94130200    
LM        1.343909230         6.385747937         23.94130200    
LM        6.719551540         1.691236707         24.15856200    
LM        1.343910000         1.691236707         24.15857200    
LM        4.031730000         1.691246707         24.15856200    
LM        4.031730000         3.142236707         26.31732200    
LM       -1.343910000         3.142246707         26.31732200    
LM        1.343910000         3.142246707         26.31732200    
LM        2.687819230         5.506087937         26.24932200    
LM       -2.687820770         5.506087937         26.24932200    
LM      -0.7698769195E-06     5.506087937         26.24932200    
LM        5.375641540         1.172286707         26.25032200    
LM       0.1810000000E-05     1.172286707         26.25032200    
LM        2.687820000         1.172286707         26.25032200    
LM        4.207136235         4.739503832         1.236454552    
LM        7.133268514         1.158791496         7.077516968    
LM        6.742168514         3.115860069         3.372990330    
LM       -1.461923249         4.775960418         1.209598935    
LM        1.278545167         1.572663805         5.588458209    
LM        1.380062500         2.996583834         3.465865313    
LM        1.322549169         4.608641240         1.224312492    
LM        4.016023865         1.478124228         5.547412845    
LM        4.003945147         3.117360149         3.336230197    
LM        2.728591916         6.948302783         1.076459623    
LM        5.331326762         3.758580990         5.633837758    
LM        5.432580643         5.469764355         3.107553896    
LM       -2.548308223         6.812165121         1.200817061    
LM       0.6760700413E-01     3.942735786         5.554821365    
LM      -0.8719214085E-01     5.459294826         3.279410041    
LM      -0.2159932666         6.879435211         1.149796580    
LM        2.636438684         3.891198989         5.595871353    
LM        2.725032321         5.399280009         3.335183506    
LM        5.358706447         2.383813332         1.126706638    
LM        7.947061317       -0.7373065579         5.635301531    
LM        8.177107274        0.7302450795         3.320898785    
LM       0.1386401335E-01     2.308725001         1.163243649    
LM       -1.370438853         6.222853777         5.494518745    
LM        2.634039486        0.6514202543         3.220531927    
LM        2.678976984         2.207748032         1.191868097    
LM        1.325441861         6.196802342         5.501468990    
LM        5.332234555        0.7432369245         3.325967291    
LM        5.398309146         5.408004384         6.877712029    
LM        6.822018329         2.826932990         6.905522764    
LM        7.673191956        0.8085870307         8.500108653    
LM        5.505135652        0.4222362816         6.788032801    
