58
-156695.0675 20717.25915 195824.47919 205227.22482
LM        4.031730000         4.891210000         21.67850000    
LM       -1.343910000         4.891210000         21.67850000    
LM        1.343910000         4.891200000         21.67850000    
LM        2.687820000         7.058570000         21.68060000    
LM       -2.687820000         7.058570000         21.68060000    
LM       0.9230100000E-05     7.058570000         21.68060000    
LM        5.375640000         2.363680000         21.83030000    
LM      -0.8000000000E-07     2.363680000         21.83030000    
LM        2.687820000         2.363680000         21.83030000    
LM        5.375640000         4.007960000         24.03430000    
LM      -0.7699000000E-06     4.007960000         24.03430000    
LM        2.687820000         4.007960000         24.03430000    
LM        4.031730000         6.385750000         23.94130000    
LM       -1.343910000         6.385750000         23.94130000    
LM        1.343910000         6.385750000         23.94130000    
LM        6.719550000         1.691240000         24.15860000    
LM        1.343910000         1.691240000         24.15860000    
LM        4.031730000         1.691250000         24.15860000    
LM        4.031730000         3.142240000         26.31730000    
LM       -1.343910000         3.142250000         26.31730000    
LM        1.343910000         3.142250000         26.31730000    
LM        2.687820000         5.506090000         26.24930000    
LM       -2.687820000         5.506090000         26.24930000    
LM      -0.7699000000E-06     5.506090000         26.24930000    
LM        5.375640000         1.172290000         26.25030000    
LM       0.1810000000E-05     1.172290000         26.25030000    
LM        2.687820000         1.172290000         26.25030000    
LM        4.215744199         4.786497506         1.260986136    
LM        5.660423940         1.005174193         6.625142352    
LM        5.463545190         3.931331214         3.301451489    
LM       -1.408759811         4.778814561         1.174422765    
LM       0.9881939860E-02    0.7474607439         5.610768335    
LM       0.9406034669E-01     3.847313633         3.459614226    
LM        1.259622067         4.638913265         1.228839166    
LM        2.756815368        0.7161227448         5.547032596    
LM        2.750014567         3.882296317         3.314465516    
LM        2.755997123         6.931568360         1.117920620    
LM        4.222889518         2.983057656         5.683961443    
LM        4.177723102         6.267496732         3.187169943    
LM       -2.633100799         6.836316948         1.167039322    
LM       -1.214523013         3.128143175         5.555914903    
LM       -1.321318792         6.215073681         3.245046932    
LM      -0.1536043988         6.908172706         1.030242211    
LM        1.370278597         3.138799275         5.571130636    
LM        1.392173979         6.181262084         3.395431946    
LM        5.366181829         2.377783642         1.129769377    
LM        6.783017856        -1.565806843         5.572698510    
LM        6.832338278         1.498936930         3.398436705    
LM       0.3432341696E-01     2.309070741         1.197362112    
LM       -2.516196486         5.381257663         5.623609735    
LM        1.304226004         1.442900914         3.394481421    
LM        2.674949379         2.217659064         1.155718916    
LM       0.9779495230E-01     5.352752379         5.425447948    
LM        4.066216237         1.515815127         3.337762587    
LM        4.148397279         6.093942968         6.946609767    
LM        2.710488558         2.321435810         6.922184588    
LM        6.007709087         1.432016273         8.075072849    
LM        4.482129082       -0.3400586881         6.609142105    
