58
-156694.6992 19222.80687 195711.33171 204120.93761
LM        4.031730000         4.891210000         21.67850000    
LM       -1.343910000         4.891210000         21.67850000    
LM        1.343910000         4.891200000         21.67850000    
LM        2.687820000         7.058570000         21.68060000    
LM       -2.687820000         7.058570000         21.68060000    
LM       0.9230100000E-05     7.058570000         21.68060000    
LM        5.375640000         2.363680000         21.83030000    
LM      -0.8000000000E-07     2.363680000         21.83030000    
LM        2.687820000         2.363680000         21.83030000    
LM        5.375640000         4.007960000         24.03430000    
LM      -0.7699000000E-06     4.007960000         24.03430000    
LM        2.687820000         4.007960000         24.03430000    
LM        4.031730000         6.385750000         23.94130000    
LM       -1.343910000         6.385750000         23.94130000    
LM        1.343910000         6.385750000         23.94130000    
LM        6.719550000         1.691240000         24.15860000    
LM        1.343910000         1.691240000         24.15860000    
LM        4.031730000         1.691250000         24.15860000    
LM        4.031730000         3.142240000         26.31730000    
LM       -1.343910000         3.142250000         26.31730000    
LM        1.343910000         3.142250000         26.31730000    
LM        2.687820000         5.506090000         26.24930000    
LM       -2.687820000         5.506090000         26.24930000    
LM      -0.7699000000E-06     5.506090000         26.24930000    
LM        5.375640000         1.172290000         26.25030000    
LM       0.1810000000E-05     1.172290000         26.25030000    
LM        2.687820000         1.172290000         26.25030000    
LM        4.225008009         4.804596718         1.275219639    
LM        5.267838378         1.968220915         6.596236584    
LM        5.479621024         3.923480222         3.307749389    
LM       -1.399120708         4.782945452         1.177955828    
LM       0.3442352005E-01     2.376276074         5.590991620    
LM       0.1236359406         3.733543264         3.417840780    
LM        1.262241962         4.639104327         1.237009220    
LM        2.839296569         2.322688445         5.633087842    
LM        2.753348595         3.893146211         3.322942471    
LM        2.746301962         6.937067049         1.111642784    
LM        4.164779511         4.569849001         5.596117143    
LM        4.180046507         6.283891846         3.195287272    
LM       -2.636317858         6.845016747         1.157334340    
LM       -1.213339959         4.687597729         5.507754856    
LM       -1.350450066         6.277020465         3.243672515    
LM      -0.1418507433         6.903556192         1.028702958    
LM        1.382648599         4.690982079         5.575634006    
LM        1.377763556         6.211111712         3.353615150    
LM        5.356598816         2.379601456         1.134829915    
LM        6.740045791        0.2079265793E-01     5.619316626    
LM        6.837556129         1.537682681         3.408915862    
LM       0.2653211104E-01     2.317626383         1.192752545    
LM       -2.557615109         6.982937653         5.599928980    
LM        1.296521905         1.514756907         3.354500466    
LM        2.685312102         2.216737962         1.165905795    
LM       0.9758040322E-01     6.915157577         5.543849320    
LM        4.065384440         1.535190195         3.412816439    
LM        4.048042369         6.078035815         6.922313498    
LM        1.428374310         1.712474923         6.972806814    
LM        5.846581310         2.852925649         7.748355547    
LM        4.418640312        0.5270771016         7.130712017    
