58
-156695.0382 19125.70768 194947.05202 203948.04115
LM        4.031730000         4.891210000         21.67850000    
LM       -1.343910000         4.891210000         21.67850000    
LM        1.343910000         4.891200000         21.67850000    
LM        2.687820000         7.058570000         21.68060000    
LM       -2.687820000         7.058570000         21.68060000    
LM       0.9230100000E-05     7.058570000         21.68060000    
LM        5.375640000         2.363680000         21.83030000    
LM      -0.8000000000E-07     2.363680000         21.83030000    
LM        2.687820000         2.363680000         21.83030000    
LM        5.375640000         4.007960000         24.03430000    
LM      -0.7699000000E-06     4.007960000         24.03430000    
LM        2.687820000         4.007960000         24.03430000    
LM        4.031730000         6.385750000         23.94130000    
LM       -1.343910000         6.385750000         23.94130000    
LM        1.343910000         6.385750000         23.94130000    
LM        6.719550000         1.691240000         24.15860000    
LM        1.343910000         1.691240000         24.15860000    
LM        4.031730000         1.691250000         24.15860000    
LM        4.031730000         3.142240000         26.31730000    
LM       -1.343910000         3.142250000         26.31730000    
LM        1.343910000         3.142250000         26.31730000    
LM        2.687820000         5.506090000         26.24930000    
LM       -2.687820000         5.506090000         26.24930000    
LM      -0.7699000000E-06     5.506090000         26.24930000    
LM        5.375640000         1.172290000         26.25030000    
LM       0.1810000000E-05     1.172290000         26.25030000    
LM        2.687820000         1.172290000         26.25030000    
LM        4.223932928         4.802704027         1.276148538    
LM        5.588363741         2.397054251         6.653597497    
LM        5.471550668         3.924797441         3.314599959    
LM       -1.398995233         4.772838664         1.174795199    
LM      -0.1326977713E-01     2.367133107         5.603063756    
LM       0.1151867642         3.758279602         3.393304943    
LM        1.263910273         4.650205390         1.244502676    
LM        2.767459417         2.271488216         5.606860552    
LM        2.751362723         3.910033960         3.351998210    
LM        2.741531511         6.938669586         1.115352890    
LM        4.201793908         4.522045875         5.680492292    
LM        4.185913924         6.277060368         3.163425256    
LM       -2.635278205         6.843924345         1.142429447    
LM       -1.216184423         4.714345528         5.494474611    
LM       -1.328367260         6.267792521         3.214139413    
LM      -0.1409605843         6.918446777         1.008126200    
LM        1.385143728         4.741817645         5.688675036    
LM        1.396005283         6.195473598         3.402854367    
LM        5.357778373         2.382019273         1.134172082    
LM        6.730146831        0.3872855859E-01     5.681491376    
LM        6.839385967         1.530001438         3.409283898    
LM       0.2953239029E-01     2.319271127         1.194869751    
LM       -2.596782689         6.980969177         5.496761667    
LM        1.302181263         1.548712811         3.389315918    
LM        2.682406888         2.230026787         1.165434420    
LM       0.9667518041E-01     6.964093780         5.492732650    
LM        4.060366706         1.539585243         3.386829087    
LM        4.153270019         6.182132725         6.913593054    
LM        1.400510846         3.124361601         6.967358330    
LM        6.048705870         2.863114768         8.055681131    
LM        4.315934296         1.150157527         6.795585291    
