58
-156695.8978 20499.24061 195803.32059 206042.78168
LM        4.031731700         4.891207937         21.67851200    
LM       -1.343910770         4.891207937         21.67851200    
LM        1.343909230         4.891197937         21.67851200    
LM        2.687820770         7.058567937         21.68060200    
LM       -2.687820770         7.058567937         21.68061200    
LM       0.9230123082E-05     7.058567937         21.68060200    
LM        5.375641540         2.363676707         21.83031200    
LM      -0.8000000018E-07     2.363676707         21.83031200    
LM        2.687820000         2.363676707         21.83031200    
LM        5.375640770         4.007960937         24.03431200    
LM      -0.7698769200E-06     4.007960937         24.03432200    
LM        2.687819230         4.007961937         24.03432200    
LM        4.031731040         6.385747937         23.94130200    
LM       -1.343910770         6.385747937         23.94130200    
LM        1.343909230         6.385747937         23.94130200    
LM        6.719551540         1.691236707         24.15856200    
LM        1.343910000         1.691236707         24.15857200    
LM        4.031730000         1.691246707         24.15856200    
LM        4.031730000         3.142236707         26.31732200    
LM       -1.343910000         3.142246707         26.31732200    
LM        1.343910000         3.142246707         26.31732200    
LM        2.687819230         5.506087937         26.24932200    
LM       -2.687820770         5.506087937         26.24932200    
LM      -0.7698769195E-06     5.506087937         26.24932200    
LM        5.375641540         1.172286707         26.25032200    
LM       0.1810000000E-05     1.172286707         26.25032200    
LM        2.687820000         1.172286707         26.25032200    
LM        4.228387706         4.815927684         1.277076399    
LM        5.267332859         1.955203202         6.681106442    
LM        5.480451880         3.950069950         3.320360243    
LM       -1.401572275         4.790187678         1.172970686    
LM      -0.1697870121E-01     2.378473965         5.632240550    
LM       0.1399805101         3.731963490         3.436050008    
LM        1.260995348         4.637520309         1.235698013    
LM        2.738326069         2.288857466         5.595280108    
LM        2.772264823         3.926464752         3.326140231    
LM        2.739383688         6.943272698         1.105646732    
LM        4.187323103         4.561959847         5.687780781    
LM        4.163356408         6.280875379         3.168716051    
LM       -2.641398436         6.847006844         1.121862316    
LM       -1.202863432         4.752847749         5.497074378    
LM       -1.364354854         6.306613777         3.212876718    
LM      -0.1418889258         6.906818351         1.020427592    
LM        1.372623236         4.661384619         5.580425098    
LM        1.352834287         6.214884729         3.344786248    
LM        5.358520872         2.392760622         1.136883675    
LM        6.763138368       -0.5234918356E-01     5.534498977    
LM        6.834711678         1.546783696         3.397403630    
LM       0.3319655495E-01     2.315849372         1.197357571    
LM       -2.577403284         7.019541633         5.546527369    
LM        1.302164314         1.605041006         3.462261515    
LM        2.684750903         2.220423913         1.171835107    
LM       0.7395505028E-01     6.953503940         5.554918058    
LM        4.069208289         1.549219120         3.412243576    
LM        4.145515026         6.235163153         6.914948377    
LM        4.047082917         3.047090342         7.192390574    
LM        6.759344228         2.366910763         7.302462084    
LM        4.549287955        0.4093528213         7.152735245    
