58
-156695.0860 25173.80095 195543.84333 210075.14611
LM        4.031730000         4.891210000         21.67850000    
LM       -1.343910000         4.891210000         21.67850000    
LM        1.343910000         4.891200000         21.67850000    
LM        2.687820000         7.058570000         21.68060000    
LM       -2.687820000         7.058570000         21.68060000    
LM       0.9230100000E-05     7.058570000         21.68060000    
LM        5.375640000         2.363680000         21.83030000    
LM      -0.8000000000E-07     2.363680000         21.83030000    
LM        2.687820000         2.363680000         21.83030000    
LM        5.375640000         4.007960000         24.03430000    
LM      -0.7699000000E-06     4.007960000         24.03430000    
LM        2.687820000         4.007960000         24.03430000    
LM        4.031730000         6.385750000         23.94130000    
LM       -1.343910000         6.385750000         23.94130000    
LM        1.343910000         6.385750000         23.94130000    
LM        6.719550000         1.691240000         24.15860000    
LM        1.343910000         1.691240000         24.15860000    
LM        4.031730000         1.691250000         24.15860000    
LM        4.031730000         3.142240000         26.31730000    
LM       -1.343910000         3.142250000         26.31730000    
LM        1.343910000         3.142250000         26.31730000    
LM        2.687820000         5.506090000         26.24930000    
LM       -2.687820000         5.506090000         26.24930000    
LM      -0.7699000000E-06     5.506090000         26.24930000    
LM        5.375640000         1.172290000         26.25030000    
LM       0.1810000000E-05     1.172290000         26.25030000    
LM        2.687820000         1.172290000         26.25030000    
LM        4.221578410         4.799932129         1.257963769    
LM        7.093251208       -0.1697397964E-01     6.696325294    
LM        5.481638543         3.917763958         3.289076510    
LM       -1.407613687         4.783724799         1.158721826    
LM        1.266616752        0.4059193127E-01     5.421114453    
LM       0.1384918139         3.814191843         3.456450568    
LM        1.261533271         4.650030825         1.235625597    
LM        4.081129982       -0.9121622582E-01     5.645796945    
LM        2.731726398         3.890810917         3.341793284    
LM        2.752348282         6.937615267         1.124352011    
LM        5.602805109         2.128496500         5.910791135    
LM        4.183441491         6.239358439         3.176394339    
LM       -2.629790816         6.833720901         1.155496623    
LM       0.1421647950         2.393960304         5.573156560    
LM       -1.303419516         6.229706424         3.218509334    
LM      -0.1492619779         6.918844555         1.005122047    
LM        2.716100852         2.402823092         5.634340607    
LM        1.439055536         6.183619733         3.417930794    
LM        5.363993218         2.368916692         1.126837737    
LM        8.043254865        -2.203486857         5.541883388    
LM        6.852654431         1.488058285         3.470505076    
LM       0.2870164200E-01     2.308558087         1.213416142    
LM       -1.221967199         4.651123890         5.558651461    
LM        1.332323470         1.540855800         3.371207988    
LM        2.679566390         2.224812223         1.162048245    
LM        1.372655235         4.605815430         5.444325111    
LM        4.081160757         1.526726983         3.362147912    
LM        5.447900127         3.997162914         6.878758400    
LM        3.931120349         1.461455327         6.985314907    
LM        7.592975947        0.3202472873         8.121485317    
LM        5.716064443        -1.160864083         6.728658750    
