58
-156695.0880 18144.11897 194743.42267 202857.23736
LM        4.031730000         4.891210000         21.67850000    
LM       -1.343910000         4.891210000         21.67850000    
LM        1.343910000         4.891200000         21.67850000    
LM        2.687820000         7.058570000         21.68060000    
LM       -2.687820000         7.058570000         21.68060000    
LM       0.9230100000E-05     7.058570000         21.68060000    
LM        5.375640000         2.363680000         21.83030000    
LM      -0.8000000000E-07     2.363680000         21.83030000    
LM        2.687820000         2.363680000         21.83030000    
LM        5.375640000         4.007960000         24.03430000    
LM      -0.7699000000E-06     4.007960000         24.03430000    
LM        2.687820000         4.007960000         24.03430000    
LM        4.031730000         6.385750000         23.94130000    
LM       -1.343910000         6.385750000         23.94130000    
LM        1.343910000         6.385750000         23.94130000    
LM        6.719550000         1.691240000         24.15860000    
LM        1.343910000         1.691240000         24.15860000    
LM        4.031730000         1.691250000         24.15860000    
LM        4.031730000         3.142240000         26.31730000    
LM       -1.343910000         3.142250000         26.31730000    
LM        1.343910000         3.142250000         26.31730000    
LM        2.687820000         5.506090000         26.24930000    
LM       -2.687820000         5.506090000         26.24930000    
LM      -0.7699000000E-06     5.506090000         26.24930000    
LM        5.375640000         1.172290000         26.25030000    
LM       0.1810000000E-05     1.172290000         26.25030000    
LM        2.687820000         1.172290000         26.25030000    
LM        4.195561621         4.789849294         1.257012960    
LM        4.411219175         3.317242133         6.715593239    
LM        5.432294480         3.939076496         3.273185631    
LM       -1.394443578         4.771223940         1.177165499    
LM       -1.410632874         3.119085246         5.566028622    
LM       0.3559776781E-01     3.836435414         3.349517588    
LM        1.262263011         4.651106679         1.236543651    
LM        1.315047533         3.011599928         5.448750874    
LM        2.742815285         3.929248542         3.354957403    
LM        2.756850831         6.936460988         1.112182626    
LM        2.821434711         5.220730713         5.816280647    
LM        4.165676920         6.261217972         3.193203636    
LM       -2.632782162         6.816322373         1.163452913    
LM       -2.660764527         5.434861169         5.511357572    
LM       -1.339728751         6.254653867         3.242642653    
LM      -0.1566521191         6.910746397         1.024530705    
LM      -0.4792577101E-01     5.477136708         5.587021450    
LM        1.392594743         6.207596733         3.382339904    
LM        5.356521474         2.373099322         1.131176028    
LM        5.303404905        0.8450494350         5.663383487    
LM        6.834688612         1.533614026         3.369011369    
LM       0.3790795870E-01     2.316726278         1.187356555    
LM       -3.917689850         7.710402149         5.579701107    
LM        1.335807597         1.463579137         3.433341959    
LM        2.680329700         2.231312742         1.167101069    
LM       -1.388906868         7.780474430         5.420261711    
LM        4.008583072         1.562358817         3.396339271    
LM        2.757383857         7.035229329         6.909595582    
LM        1.198939778         4.486417759         6.906907447    
LM        4.715248654         3.716404792         8.181384817    
LM        3.521747923         1.768569359         6.644473143    
