58
-156694.2380 20152.92784 194939.79688 202746.37878
LM        4.031731700         4.891207937         21.67851200    
LM       -1.343910770         4.891207937         21.67851200    
LM        1.343909230         4.891197937         21.67851200    
LM        2.687820770         7.058567937         21.68060200    
LM       -2.687820770         7.058567937         21.68061200    
LM       0.9230123082E-05     7.058567937         21.68060200    
LM        5.375641540         2.363676707         21.83031200    
LM      -0.8000000018E-07     2.363676707         21.83031200    
LM        2.687820000         2.363676707         21.83031200    
LM        5.375640770         4.007960937         24.03431200    
LM      -0.7698769200E-06     4.007960937         24.03432200    
LM        2.687819230         4.007961937         24.03432200    
LM        4.031731040         6.385747937         23.94130200    
LM       -1.343910770         6.385747937         23.94130200    
LM        1.343909230         6.385747937         23.94130200    
LM        6.719551540         1.691236707         24.15856200    
LM        1.343910000         1.691236707         24.15857200    
LM        4.031730000         1.691246707         24.15856200    
LM        4.031730000         3.142236707         26.31732200    
LM       -1.343910000         3.142246707         26.31732200    
LM        1.343910000         3.142246707         26.31732200    
LM        2.687819230         5.506087937         26.24932200    
LM       -2.687820770         5.506087937         26.24932200    
LM      -0.7698769195E-06     5.506087937         26.24932200    
LM        5.375641540         1.172286707         26.25032200    
LM       0.1810000000E-05     1.172286707         26.25032200    
LM        2.687820000         1.172286707         26.25032200    
LM        4.236611835         4.813053135         1.277981072    
LM        6.129267468         3.542669514         7.295798462    
LM        5.481964365         3.924000112         3.320063801    
LM       -1.400852135         4.773789976         1.157897594    
LM      -0.6467946328E-02     2.370487500         5.665845009    
LM       0.1734053071         3.764278157         3.446819796    
LM        1.251315094         4.652488346         1.247773003    
LM        2.810996696         2.192065965         5.582793198    
LM        2.776524472         3.918129313         3.323836185    
LM        2.743990530         6.940567064         1.120196733    
LM        4.253781710         4.538469826         5.705494908    
LM        4.179576600         6.257802755         3.189884883    
LM       -2.636130616         6.845042136         1.131832914    
LM       -1.132636769         4.792972450         5.438168562    
LM       -1.337275061         6.260192756         3.186897021    
LM      -0.1350970878         6.915934228         1.008731377    
LM        1.413978063         4.654660541         5.660638643    
LM        1.391321818         6.179801808         3.418032215    
LM        5.363348379         2.387350939         1.128429319    
LM        6.730800551       -0.4288065633E-01     5.648300966    
LM        6.842963334         1.536230469         3.414407625    
LM       0.3379065438E-01     2.316526684         1.201082271    
LM       -2.603826419         6.952616090         5.486103106    
LM        1.340440588         1.554472242         3.402283011    
LM        2.682839895         2.226354478         1.161601756    
LM        1.305390074         9.011294245         5.534928490    
LM        4.067906951         1.518104972         3.372940622    
LM        4.147009462         7.641569459         6.933689055    
LM        2.745636435         3.765693178         6.948195452    
LM        6.466411875         4.185509532         8.677577728    
LM        5.331747740         2.018642852         7.278458718    
