58
-156696.0660 23238.14361 195878.30374 207749.56711
LM        4.031730000         4.891210000         21.67850000    
LM       -1.343910000         4.891210000         21.67850000    
LM        1.343910000         4.891200000         21.67850000    
LM        2.687820000         7.058570000         21.68060000    
LM       -2.687820000         7.058570000         21.68060000    
LM       0.9230100000E-05     7.058570000         21.68060000    
LM        5.375640000         2.363680000         21.83030000    
LM      -0.8000000000E-07     2.363680000         21.83030000    
LM        2.687820000         2.363680000         21.83030000    
LM        5.375640000         4.007960000         24.03430000    
LM      -0.7699000000E-06     4.007960000         24.03430000    
LM        2.687820000         4.007960000         24.03430000    
LM        4.031730000         6.385750000         23.94130000    
LM       -1.343910000         6.385750000         23.94130000    
LM        1.343910000         6.385750000         23.94130000    
LM        6.719550000         1.691240000         24.15860000    
LM        1.343910000         1.691240000         24.15860000    
LM        4.031730000         1.691250000         24.15860000    
LM        4.031730000         3.142240000         26.31730000    
LM       -1.343910000         3.142250000         26.31730000    
LM        1.343910000         3.142250000         26.31730000    
LM        2.687820000         5.506090000         26.24930000    
LM       -2.687820000         5.506090000         26.24930000    
LM      -0.7699000000E-06     5.506090000         26.24930000    
LM        5.375640000         1.172290000         26.25030000    
LM       0.1810000000E-05     1.172290000         26.25030000    
LM        2.687820000         1.172290000         26.25030000    
LM        4.222200483         4.800550345         1.278473458    
LM        7.214120497         2.688194477         7.038053359    
LM        5.466018693         3.925760855         3.344276350    
LM       -1.401770407         4.761260815         1.186500720    
LM        1.234711502         3.046398858         5.484107070    
LM       0.6224517091E-01     3.826909443         3.336277808    
LM        1.268678988         4.639568965         1.219300387    
LM        4.051307122         3.040245439         5.620934374    
LM        2.719004365         3.886051101         3.316198748    
LM        2.762986620         6.939733833         1.109977778    
LM        5.346810806         5.317036811         5.607145199    
LM        4.161374142         6.268033657         3.217803461    
LM       -2.638631838         6.828620694         1.171266568    
LM       0.4568290292E-01     5.408431856         5.514273223    
LM       -1.359637999         6.218353596         3.232457099    
LM      -0.1562598087         6.902503941         1.032612230    
LM        2.664777021         5.414588369         5.591936870    
LM        1.391105368         6.223328196         3.338348048    
LM        5.360286844         2.389296284         1.136717888    
LM        8.026101756        0.7274870820         5.608261735    
LM        6.830930044         1.582624041         3.454976361    
LM       0.2868708797E-01     2.312613572         1.198085456    
LM       -1.291286485         7.751594779         5.604461276    
LM        1.276932109         1.477274453         3.357947306    
LM        2.672086054         2.220158657         1.151706394    
LM        1.341344006         7.693942291         5.475083758    
LM        4.037509806         1.519550561         3.350628817    
LM        5.448422505         6.916966974         6.927029553    
LM        6.856359970         4.352107939         6.904712998    
LM        7.777540934         2.315626908         8.444005072    
LM        5.604790754         1.935978888         6.736710834    
