58
-156694.7807 18991.21153 194644.42533 203941.75884
LM        4.031730000         4.891210000         21.67850000    
LM       -1.343910000         4.891210000         21.67850000    
LM        1.343910000         4.891200000         21.67850000    
LM        2.687820000         7.058570000         21.68060000    
LM       -2.687820000         7.058570000         21.68060000    
LM       0.9230100000E-05     7.058570000         21.68060000    
LM        5.375640000         2.363680000         21.83030000    
LM      -0.8000000000E-07     2.363680000         21.83030000    
LM        2.687820000         2.363680000         21.83030000    
LM        5.375640000         4.007960000         24.03430000    
LM      -0.7699000000E-06     4.007960000         24.03430000    
LM        2.687820000         4.007960000         24.03430000    
LM        4.031730000         6.385750000         23.94130000    
LM       -1.343910000         6.385750000         23.94130000    
LM        1.343910000         6.385750000         23.94130000    
LM        6.719550000         1.691240000         24.15860000    
LM        1.343910000         1.691240000         24.15860000    
LM        4.031730000         1.691250000         24.15860000    
LM        4.031730000         3.142240000         26.31730000    
LM       -1.343910000         3.142250000         26.31730000    
LM        1.343910000         3.142250000         26.31730000    
LM        2.687820000         5.506090000         26.24930000    
LM       -2.687820000         5.506090000         26.24930000    
LM      -0.7699000000E-06     5.506090000         26.24930000    
LM        5.375640000         1.172290000         26.25030000    
LM       0.1810000000E-05     1.172290000         26.25030000    
LM        2.687820000         1.172290000         26.25030000    
LM        4.228394623         4.804267072         1.282265168    
LM        5.637158702         2.454738549         6.651908826    
LM        5.475845496         3.927101430         3.323523095    
LM       -1.400935059         4.764159554         1.166123075    
LM       0.1222550232E-01     2.376073154         5.592688171    
LM       0.1244888420         3.766782213         3.397691582    
LM        1.265810844         4.656484297         1.247561866    
LM        2.782379548         2.263514369         5.601975545    
LM        2.750325223         3.905727537         3.360916610    
LM        2.743656190         6.936421460         1.122808786    
LM        4.261257756         4.546389807         5.698655895    
LM        4.185719129         6.270839080         3.178926398    
LM       -2.637074007         6.843425824         1.135555941    
LM       -1.188122196         4.741362308         5.500082327    
LM       -1.310496212         6.256981824         3.187439374    
LM      -0.1403944488         6.926324843        0.9930087953    
LM        1.400036416         4.766611951         5.819791577    
LM        1.398298629         6.178046116         3.431823835    
LM        5.358771811         2.383290211         1.135300911    
LM        6.791842229        0.8107243047E-01     5.664128972    
LM        6.841608444         1.533385832         3.402680456    
LM       0.3046741137E-01     2.323653774         1.192375565    
LM       -2.590810896         6.982092963         5.436349567    
LM        1.303127261         1.576821115         3.379960621    
LM        2.682391793         2.232783188         1.165408581    
LM       0.8128244068E-01     6.984507921         5.487052551    
LM        4.068875737         1.536127093         3.380622758    
LM        2.995256113         5.532987696         6.996591092    
LM        1.393983563         3.009358891         6.984026918    
LM        6.085410158         2.890847439         8.067819089    
LM        4.370656782         1.195447945         6.757154433    
