58
-156695.0782 21169.24847 196629.62118 206289.58798
LM        4.031731700         4.891207937         21.67851200    
LM       -1.343910770         4.891207937         21.67851200    
LM        1.343909230         4.891197937         21.67851200    
LM        2.687820770         7.058567937         21.68060200    
LM       -2.687820770         7.058567937         21.68061200    
LM       0.9230123082E-05     7.058567937         21.68060200    
LM        5.375641540         2.363676707         21.83031200    
LM      -0.8000000018E-07     2.363676707         21.83031200    
LM        2.687820000         2.363676707         21.83031200    
LM        5.375640770         4.007960937         24.03431200    
LM      -0.7698769200E-06     4.007960937         24.03432200    
LM        2.687819230         4.007961937         24.03432200    
LM        4.031731040         6.385747937         23.94130200    
LM       -1.343910770         6.385747937         23.94130200    
LM        1.343909230         6.385747937         23.94130200    
LM        6.719551540         1.691236707         24.15856200    
LM        1.343910000         1.691236707         24.15857200    
LM        4.031730000         1.691246707         24.15856200    
LM        4.031730000         3.142236707         26.31732200    
LM       -1.343910000         3.142246707         26.31732200    
LM        1.343910000         3.142246707         26.31732200    
LM        2.687819230         5.506087937         26.24932200    
LM       -2.687820770         5.506087937         26.24932200    
LM      -0.7698769195E-06     5.506087937         26.24932200    
LM        5.375641540         1.172286707         26.25032200    
LM       0.1810000000E-05     1.172286707         26.25032200    
LM        2.687820000         1.172286707         26.25032200    
LM        4.230621863         4.793721337         1.263991073    
LM        5.653897988        0.7365259758         5.805781296    
LM        5.502246450         3.924291007         3.286131377    
LM       -1.400266245         4.796753215         1.170107691    
LM       0.2047603596        0.6833645890         5.461236062    
LM       0.1509910361         3.761461003         3.413386727    
LM        1.244887335         4.677165028         1.259410927    
LM        3.018497280        0.5844049875         5.632088931    
LM        2.773757217         3.912334778         3.296376704    
LM        2.741319843         6.917811947         1.138124729    
LM        4.272149503         2.993433809         5.762760667    
LM        4.205148554         6.234760050         3.176800800    
LM       -2.631707114         6.842736998         1.162837295    
LM       -1.133970767         3.065375842         5.497716817    
LM       -1.329501324         6.237922422         3.232287141    
LM      -0.1611149005         6.919575217         1.022678318    
LM        1.478908877         3.032481717         5.514319215    
LM        1.325979788         6.153366447         3.550113284    
LM        5.365133751         2.368206953         1.127382535    
LM        6.819070970        -1.540225533         5.623926591    
LM        6.830243699         1.458354409         3.376472206    
LM       0.3284644712E-01     2.320614460         1.189201697    
LM       -2.432118042         5.386762409         5.592342537    
LM        1.332867491         1.514553502         3.310795156    
LM        2.682071662         2.235183645         1.152405932    
LM       0.1934999296         5.281567068         5.888378435    
LM        4.078398365         1.537399202         3.359516142    
LM        4.236375225         4.749996942         6.943829323    
LM        2.730163912         2.135897590         6.926549590    
LM        5.752656459        0.8069190254         7.359276828    
LM        4.207184327        -1.752811600         7.442675552    
