58
-156694.8089 19859.14503 196171.31635 205938.99788
LM        4.031730000         4.891210000         21.67850000    
LM       -1.343910000         4.891210000         21.67850000    
LM        1.343910000         4.891200000         21.67850000    
LM        2.687820000         7.058570000         21.68060000    
LM       -2.687820000         7.058570000         21.68060000    
LM       0.9230100000E-05     7.058570000         21.68060000    
LM        5.375640000         2.363680000         21.83030000    
LM      -0.8000000000E-07     2.363680000         21.83030000    
LM        2.687820000         2.363680000         21.83030000    
LM        5.375640000         4.007960000         24.03430000    
LM      -0.7699000000E-06     4.007960000         24.03430000    
LM        2.687820000         4.007960000         24.03430000    
LM        4.031730000         6.385750000         23.94130000    
LM       -1.343910000         6.385750000         23.94130000    
LM        1.343910000         6.385750000         23.94130000    
LM        6.719550000         1.691240000         24.15860000    
LM        1.343910000         1.691240000         24.15860000    
LM        4.031730000         1.691250000         24.15860000    
LM        4.031730000         3.142240000         26.31730000    
LM       -1.343910000         3.142250000         26.31730000    
LM        1.343910000         3.142250000         26.31730000    
LM        2.687820000         5.506090000         26.24930000    
LM       -2.687820000         5.506090000         26.24930000    
LM      -0.7699000000E-06     5.506090000         26.24930000    
LM        5.375640000         1.172290000         26.25030000    
LM       0.1810000000E-05     1.172290000         26.25030000    
LM        2.687820000         1.172290000         26.25030000    
LM        4.221250374         4.816867773         1.275847173    
LM        5.430536574         2.095675296         6.078792190    
LM        5.456086769         3.959957692         3.326157509    
LM       -1.403139838         4.782638430         1.171605842    
LM      -0.1561287465E-02     2.356430064         5.579707110    
LM       0.1417161699         3.763210183         3.415728670    
LM        1.264916504         4.642600904         1.239385231    
LM        2.749156192         2.242586809         5.611439139    
LM        2.760756947         3.920453535         3.350178828    
LM        2.735960648         6.944257556         1.110249998    
LM        4.237968781         4.501967946         5.804757154    
LM        4.172746705         6.290208054         3.158959467    
LM       -2.640965512         6.847896485         1.123218945    
LM       -1.202101990         4.740177317         5.476428703    
LM       -1.345107366         6.291510983         3.198149021    
LM      -0.1396175166         6.912417300         1.007708390    
LM        1.359069558         4.690242968         5.675177342    
LM        1.371630373         6.191820451         3.374521677    
LM        5.357970711         2.397099460         1.137197149    
LM        6.785474082       -0.6182435051E-01     5.573681003    
LM        6.825703367         1.546659448         3.390963102    
LM       0.3519590052E-01     2.316436022         1.196699844    
LM       -2.580115834         6.985789466         5.500444328    
LM        1.308831127         1.594745873         3.430194392    
LM        2.687631654         2.223485200         1.172729539    
LM       0.1203822272         6.937958083         5.524119571    
LM        4.074950849         1.553235644         3.411936633    
LM        4.215975101         6.276418405         6.930272457    
LM        2.655705134         3.757364374         6.991961806    
LM        6.603432212         2.595396830         7.136240016    
LM        4.284804670         1.004322825         6.902345432    
