58
-156696.0437 23900.18431 195239.46704 207875.26797
LM        4.031730000         4.891210000         21.67850000    
LM       -1.343910000         4.891210000         21.67850000    
LM        1.343910000         4.891200000         21.67850000    
LM        2.687820000         7.058570000         21.68060000    
LM       -2.687820000         7.058570000         21.68060000    
LM       0.9230100000E-05     7.058570000         21.68060000    
LM        5.375640000         2.363680000         21.83030000    
LM      -0.8000000000E-07     2.363680000         21.83030000    
LM        2.687820000         2.363680000         21.83030000    
LM        5.375640000         4.007960000         24.03430000    
LM      -0.7699000000E-06     4.007960000         24.03430000    
LM        2.687820000         4.007960000         24.03430000    
LM        4.031730000         6.385750000         23.94130000    
LM       -1.343910000         6.385750000         23.94130000    
LM        1.343910000         6.385750000         23.94130000    
LM        6.719550000         1.691240000         24.15860000    
LM        1.343910000         1.691240000         24.15860000    
LM        4.031730000         1.691250000         24.15860000    
LM        4.031730000         3.142240000         26.31730000    
LM       -1.343910000         3.142250000         26.31730000    
LM        1.343910000         3.142250000         26.31730000    
LM        2.687820000         5.506090000         26.24930000    
LM       -2.687820000         5.506090000         26.24930000    
LM      -0.7699000000E-06     5.506090000         26.24930000    
LM        5.375640000         1.172290000         26.25030000    
LM       0.1810000000E-05     1.172290000         26.25030000    
LM        2.687820000         1.172290000         26.25030000    
LM        4.223288602         4.798094505         1.277100191    
LM        7.219779361         2.471420206         7.172751836    
LM        5.459425031         3.931401721         3.354325394    
LM       -1.403348302         4.755952771         1.189439589    
LM        1.188735377         3.007032953         5.496775511    
LM       0.5674904066E-01     3.835752982         3.337565973    
LM        1.263555596         4.641643847         1.216404429    
LM        3.998346794         3.002052945         5.558186343    
LM        2.706511602         3.874079910         3.295398278    
LM        2.767535685         6.945977506         1.102840618    
LM        5.452173927         5.152474327         5.741005963    
LM        4.158074388         6.281187623         3.193913058    
LM       -2.632403477         6.828414469         1.172140602    
LM       0.9178789357E-01     5.382747985         5.465917247    
LM       -1.354531771         6.207063298         3.238834933    
LM      -0.1526949028         6.903462658         1.031735288    
LM        2.711222578         5.367828276         5.579995487    
LM        1.430777564         6.235653246         3.326975377    
LM        5.362414796         2.393642055         1.139489303    
LM        8.130216087        0.6211774220         5.554138322    
LM        6.839272572         1.601629842         3.500499791    
LM       0.2755729407E-01     2.309963120         1.208415339    
LM       -1.243224478         7.703910365         5.635732604    
LM        1.285280857         1.453403886         3.356121325    
LM        2.673083738         2.217474929         1.148223775    
LM        1.335112896         7.696057355         5.508219481    
LM        4.045547372         1.501104367         3.338797777    
LM        5.541804350         6.800097183         6.945175565    
LM        6.480092154         3.957171023         7.131947842    
LM        8.052229166         2.235183584         8.473384889    
LM        5.883866663         1.321336369         7.030502064    
