58
-156694.8811 19397.34638 196123.32862 204306.79535
LM        4.031731700         4.891207937         21.67851200    
LM       -1.343910770         4.891207937         21.67851200    
LM        1.343909230         4.891197937         21.67851200    
LM        2.687820770         7.058567937         21.68060200    
LM       -2.687820770         7.058567937         21.68061200    
LM       0.9230123082E-05     7.058567937         21.68060200    
LM        5.375641540         2.363676707         21.83031200    
LM      -0.8000000018E-07     2.363676707         21.83031200    
LM        2.687820000         2.363676707         21.83031200    
LM        5.375640770         4.007960937         24.03431200    
LM      -0.7698769200E-06     4.007960937         24.03432200    
LM        2.687819230         4.007961937         24.03432200    
LM        4.031731040         6.385747937         23.94130200    
LM       -1.343910770         6.385747937         23.94130200    
LM        1.343909230         6.385747937         23.94130200    
LM        6.719551540         1.691236707         24.15856200    
LM        1.343910000         1.691236707         24.15857200    
LM        4.031730000         1.691246707         24.15856200    
LM        4.031730000         3.142236707         26.31732200    
LM       -1.343910000         3.142246707         26.31732200    
LM        1.343910000         3.142246707         26.31732200    
LM        2.687819230         5.506087937         26.24932200    
LM       -2.687820770         5.506087937         26.24932200    
LM      -0.7698769195E-06     5.506087937         26.24932200    
LM        5.375641540         1.172286707         26.25032200    
LM       0.1810000000E-05     1.172286707         26.25032200    
LM        2.687820000         1.172286707         26.25032200    
LM        4.231660593         4.807740761         1.277490577    
LM        5.210781062         1.926374466         6.563559872    
LM        5.482267260         3.920176903         3.311426382    
LM       -1.401557826         4.778476840         1.169464348    
LM       0.4371889154E-01     2.384378001         5.580397965    
LM       0.1365500314         3.748501859         3.434141922    
LM        1.255983904         4.651439812         1.239356124    
LM        2.822749652         2.305176896         5.588267350    
LM        2.750086336         3.908805479         3.312645936    
LM        2.748608018         6.934159637         1.119371326    
LM        4.187409934         4.654171039         5.584635215    
LM        4.174544637         6.250536989         3.211501132    
LM       -2.637172857         6.843364925         1.144130592    
LM       -1.228514195         4.692067901         5.507395679    
LM       -1.341498015         6.269335004         3.217131782    
LM      -0.1446744748         6.911149085         1.016654836    
LM        1.363646610         4.714457427         5.664968100    
LM        1.379955625         6.200087285         3.392061338    
LM        5.358924562         2.378926854         1.133922168    
LM        6.736660794        0.4658879275E-01     5.626393369    
LM        6.845598843         1.538733882         3.386427066    
LM       0.3290529051E-01     2.321321190         1.192080888    
LM       -2.555621716         6.987434569         5.528243421    
LM        1.325076372         1.575273976         3.384670438    
LM        2.685437864         2.220566535         1.165020121    
LM       0.5419458154E-01     6.929861670         5.547343759    
LM        4.072560424         1.528640928         3.403997345    
LM        4.168112679         7.752606127         6.917011051    
LM        2.791539412         3.927794351         6.937924837    
LM        5.831315138         2.858497410         7.664361847    
LM        4.336920968        0.5239751452         7.149464543    
