58
-156695.0756 20865.74525 195773.53466 205462.81944
LM        4.031730000         4.891210000         21.67850000    
LM       -1.343910000         4.891210000         21.67850000    
LM        1.343910000         4.891200000         21.67850000    
LM        2.687820000         7.058570000         21.68060000    
LM       -2.687820000         7.058570000         21.68060000    
LM       0.9230100000E-05     7.058570000         21.68060000    
LM        5.375640000         2.363680000         21.83030000    
LM      -0.8000000000E-07     2.363680000         21.83030000    
LM        2.687820000         2.363680000         21.83030000    
LM        5.375640000         4.007960000         24.03430000    
LM      -0.7699000000E-06     4.007960000         24.03430000    
LM        2.687820000         4.007960000         24.03430000    
LM        4.031730000         6.385750000         23.94130000    
LM       -1.343910000         6.385750000         23.94130000    
LM        1.343910000         6.385750000         23.94130000    
LM        6.719550000         1.691240000         24.15860000    
LM        1.343910000         1.691240000         24.15860000    
LM        4.031730000         1.691250000         24.15860000    
LM        4.031730000         3.142240000         26.31730000    
LM       -1.343910000         3.142250000         26.31730000    
LM        1.343910000         3.142250000         26.31730000    
LM        2.687820000         5.506090000         26.24930000    
LM       -2.687820000         5.506090000         26.24930000    
LM      -0.7699000000E-06     5.506090000         26.24930000    
LM        5.375640000         1.172290000         26.25030000    
LM       0.1810000000E-05     1.172290000         26.25030000    
LM        2.687820000         1.172290000         26.25030000    
LM        4.207638445         4.787549430         1.260049126    
LM        5.609740397        0.7836838945         6.619120987    
LM        5.457306683         3.928278313         3.274533831    
LM       -1.406010395         4.779561554         1.170535387    
LM       0.1286069150E-02    0.7340771179         5.580400857    
LM       0.8940299884E-01     3.857238745         3.443849523    
LM        1.266553695         4.640776288         1.229990699    
LM        2.761899796        0.7109330799         5.577930278    
LM        2.735082839         3.871019850         3.333621163    
LM        2.760017266         6.929559063         1.121123617    
LM        4.200736654         2.934177190         5.700971381    
LM        4.176573923         6.278631869         3.222212786    
LM       -2.634519912         6.836962684         1.175905478    
LM       -1.230143511         3.133978492         5.536687929    
LM       -1.321085158         6.210553744         3.246101330    
LM      -0.1552193033         6.906778524         1.033484872    
LM        1.382038151         3.135293123         5.577262965    
LM        1.391943697         6.180714462         3.397955823    
LM        5.360931430         2.367016649         1.129627708    
LM        6.731814969        -1.529149823         5.618988532    
LM        6.826011431         1.500883254         3.385305430    
LM       0.3305538439E-01     2.312825582         1.191758663    
LM       -2.567319060         5.398987444         5.584480743    
LM        1.314146454         1.431423502         3.350221726    
LM        2.678025158         2.217139861         1.157436446    
LM       0.7065887265E-01     5.318770698         5.403294442    
LM        4.054737601         1.519286667         3.366048024    
LM        4.106913326         4.610864445         6.911945082    
LM        1.394168941         1.556557746         6.931724941    
LM        6.051870788         1.198033747         8.042566459    
LM        4.316267194       -0.4435667247         6.692692616    
