58
-156694.9872 21182.15184 195120.30038 205485.88759
LM        4.031730000         4.891210000         21.67850000    
LM       -1.343910000         4.891210000         21.67850000    
LM        1.343910000         4.891200000         21.67850000    
LM        2.687820000         7.058570000         21.68060000    
LM       -2.687820000         7.058570000         21.68060000    
LM       0.9230100000E-05     7.058570000         21.68060000    
LM        5.375640000         2.363680000         21.83030000    
LM      -0.8000000000E-07     2.363680000         21.83030000    
LM        2.687820000         2.363680000         21.83030000    
LM        5.375640000         4.007960000         24.03430000    
LM      -0.7699000000E-06     4.007960000         24.03430000    
LM        2.687820000         4.007960000         24.03430000    
LM        4.031730000         6.385750000         23.94130000    
LM       -1.343910000         6.385750000         23.94130000    
LM        1.343910000         6.385750000         23.94130000    
LM        6.719550000         1.691240000         24.15860000    
LM        1.343910000         1.691240000         24.15860000    
LM        4.031730000         1.691250000         24.15860000    
LM        4.031730000         3.142240000         26.31730000    
LM       -1.343910000         3.142250000         26.31730000    
LM        1.343910000         3.142250000         26.31730000    
LM        2.687820000         5.506090000         26.24930000    
LM       -2.687820000         5.506090000         26.24930000    
LM      -0.7699000000E-06     5.506090000         26.24930000    
LM        5.375640000         1.172290000         26.25030000    
LM       0.1810000000E-05     1.172290000         26.25030000    
LM        2.687820000         1.172290000         26.25030000    
LM        4.215128668         4.784309107         1.257501408    
LM        5.795473063        0.6872052628         6.655539242    
LM        5.464803198         3.929466810         3.292475744    
LM       -1.408468323         4.781814997         1.170753660    
LM       0.3683154375E-01    0.7009952730         5.500510301    
LM       0.9749480818E-01     3.851767046         3.460338182    
LM        1.256517523         4.647404195         1.229726889    
LM        2.745455488        0.6599310384         5.566028466    
LM        2.744068181         3.898163277         3.313083671    
LM        2.758879862         6.928406978         1.118600507    
LM        4.277600883         2.866200493         5.910757783    
LM        4.182664377         6.260380488         3.197204206    
LM       -2.629550898         6.837016717         1.165766413    
LM       -1.204203963         3.080716369         5.552202853    
LM       -1.312880865         6.220404011         3.240402507    
LM      -0.1515845189         6.910369120         1.026964154    
LM        1.390501655         3.098775392         5.553707078    
LM        1.387191349         6.191735912         3.408184060    
LM        5.359411870         2.367563776         1.133226929    
LM        6.767242709        -1.546897653         5.611227998    
LM        6.821042779         1.509749878         3.361160599    
LM       0.3806759602E-01     2.313773760         1.187766334    
LM       -2.533013438         5.371789553         5.597150061    
LM        1.322489727         1.454698100         3.362963621    
LM        2.682938155         2.216457824         1.163437735    
LM       0.8922190446E-01     5.299385038         5.411404318    
LM        4.064345879         1.550930514         3.405205296    
LM        4.169509827         4.690584564         6.944494044    
LM        2.621590449         2.183773540         6.956857567    
LM        6.257446655         1.019600892         8.093770492    
LM        4.409235562       -0.4394793277         6.662164644    
