58
-156695.2420 22109.74826 195616.32922 207720.75306
LM        4.031731700         4.891207937         21.67851200    
LM       -1.343910770         4.891207937         21.67851200    
LM        1.343909230         4.891197937         21.67851200    
LM        2.687820770         7.058567937         21.68060200    
LM       -2.687820770         7.058567937         21.68061200    
LM       0.9230123082E-05     7.058567937         21.68060200    
LM        5.375641540         2.363676707         21.83031200    
LM      -0.8000000018E-07     2.363676707         21.83031200    
LM        2.687820000         2.363676707         21.83031200    
LM        5.375640770         4.007960937         24.03431200    
LM      -0.7698769200E-06     4.007960937         24.03432200    
LM        2.687819230         4.007961937         24.03432200    
LM        4.031731040         6.385747937         23.94130200    
LM       -1.343910770         6.385747937         23.94130200    
LM        1.343909230         6.385747937         23.94130200    
LM        6.719551540         1.691236707         24.15856200    
LM        1.343910000         1.691236707         24.15857200    
LM        4.031730000         1.691246707         24.15856200    
LM        4.031730000         3.142236707         26.31732200    
LM       -1.343910000         3.142246707         26.31732200    
LM        1.343910000         3.142246707         26.31732200    
LM        2.687819230         5.506087937         26.24932200    
LM       -2.687820770         5.506087937         26.24932200    
LM      -0.7698769195E-06     5.506087937         26.24932200    
LM        5.375641540         1.172286707         26.25032200    
LM       0.1810000000E-05     1.172286707         26.25032200    
LM        2.687820000         1.172286707         26.25032200    
LM        4.207552201         4.739048872         1.237643978    
LM        7.052026480         1.521192689         6.674578720    
LM        6.719019876         3.107748003         3.390447852    
LM       -1.467165118         4.766241283         1.209809248    
LM        1.294992669         1.557174843         5.502787787    
LM        1.407831315         3.011226900         3.430238360    
LM        1.329478286         4.608015671         1.222532220    
LM        4.025077866         1.416895682         5.565672226    
LM        4.013799659         3.111913943         3.360991573    
LM        2.725972469         6.946407714         1.075586900    
LM        5.515214852         3.669116930         5.833466792    
LM        5.429819572         5.470642812         3.108615138    
LM       -2.546885883         6.806711339         1.197376668    
LM       0.6553788757E-01     3.872856219         5.530525450    
LM      -0.8779722590E-01     5.446245083         3.267229812    
LM      -0.2161380249         6.877142522         1.148784883    
LM        2.643013581         3.929301602         5.652297267    
LM        2.730122205         5.380609639         3.349351629    
LM        5.358386993         2.384104043         1.129629744    
LM        8.018493136       -0.7339102050         5.609431443    
LM        8.172396147        0.7235901365         3.285496076    
LM       0.8854876956E-02     2.318532942         1.164032045    
LM       -1.321134677         6.169218949         5.504183963    
LM        2.638147395        0.6591269587         3.229038774    
LM        2.680720860         2.205266863         1.192697757    
LM        1.364387238         6.162077880         5.485337995    
LM        5.320171491        0.7307726731         3.316757290    
LM        5.444015089         5.480563998         6.909476089    
LM        3.892256047         2.944420842         6.959205497    
LM        7.531797190         1.905940047         8.094127842    
LM        5.692771458        0.3623011051         6.746118860    
