58
-156695.3814 21728.85456 196464.14169 207724.16510
LM        4.031730000         4.891210000         21.67850000    
LM       -1.343910000         4.891210000         21.67850000    
LM        1.343910000         4.891200000         21.67850000    
LM        2.687820000         7.058570000         21.68060000    
LM       -2.687820000         7.058570000         21.68060000    
LM       0.9230100000E-05     7.058570000         21.68060000    
LM        5.375640000         2.363680000         21.83030000    
LM      -0.8000000000E-07     2.363680000         21.83030000    
LM        2.687820000         2.363680000         21.83030000    
LM        5.375640000         4.007960000         24.03430000    
LM      -0.7699000000E-06     4.007960000         24.03430000    
LM        2.687820000         4.007960000         24.03430000    
LM        4.031730000         6.385750000         23.94130000    
LM       -1.343910000         6.385750000         23.94130000    
LM        1.343910000         6.385750000         23.94130000    
LM        6.719550000         1.691240000         24.15860000    
LM        1.343910000         1.691240000         24.15860000    
LM        4.031730000         1.691250000         24.15860000    
LM        4.031730000         3.142240000         26.31730000    
LM       -1.343910000         3.142250000         26.31730000    
LM        1.343910000         3.142250000         26.31730000    
LM        2.687820000         5.506090000         26.24930000    
LM       -2.687820000         5.506090000         26.24930000    
LM      -0.7699000000E-06     5.506090000         26.24930000    
LM        5.375640000         1.172290000         26.25030000    
LM       0.1810000000E-05     1.172290000         26.25030000    
LM        2.687820000         1.172290000         26.25030000    
LM        4.208239052         4.739118882         1.242570343    
LM        6.558625966         1.238168654         6.616521934    
LM        6.751235970         3.109816004         3.356390424    
LM       -1.466687449         4.776201511         1.212687964    
LM        1.308204649         1.579296993         5.535297098    
LM        1.400592245         2.988384340         3.401867496    
LM        1.322903148         4.610470112         1.224536433    
LM        4.153926842         1.513707793         5.631404887    
LM        4.008485425         3.110877675         3.346173877    
LM        2.723299078         6.945874218         1.086756195    
LM        5.463602236         3.810856657         5.616670534    
LM        5.430008940         5.477603811         3.113983480    
LM       -2.550253301         6.814207875         1.199789343    
LM       0.7155695039E-01     3.918555886         5.502206754    
LM      -0.8883722332E-01     5.477680027         3.263063095    
LM      -0.2083615667         6.890781196         1.143265894    
LM        2.674979574         3.941125385         5.643750841    
LM        2.720785992         5.386236704         3.350853951    
LM        5.359877184         2.375289697         1.130975276    
LM        8.016761461       -0.7112305194         5.598047207    
LM        8.180351279        0.7373315362         3.315672524    
LM       0.1542432564E-01     2.306450137         1.158290035    
LM       -1.283682382         6.234707558         5.511877560    
LM        2.627793846        0.6584618962         3.184868020    
LM        2.684236170         2.216122845         1.184802057    
LM        1.343158051         6.175937243         5.566461642    
LM        5.331848898        0.7407322578         3.363518053    
LM        5.425351741         5.435639856         6.876641761    
LM        2.700957490         2.300871863         6.912607630    
LM        7.188451094         2.068585441         7.780288711    
LM        5.699848506       -0.2045796662         7.140439080    
