58
-156695.2404 18103.34156 195170.13449 203142.04553
LM        4.031731700         4.891207937         21.67851200    
LM       -1.343910770         4.891207937         21.67851200    
LM        1.343909230         4.891197937         21.67851200    
LM        2.687820770         7.058567937         21.68060200    
LM       -2.687820770         7.058567937         21.68061200    
LM       0.9230123082E-05     7.058567937         21.68060200    
LM        5.375641540         2.363676707         21.83031200    
LM      -0.8000000018E-07     2.363676707         21.83031200    
LM        2.687820000         2.363676707         21.83031200    
LM        5.375640770         4.007960937         24.03431200    
LM      -0.7698769200E-06     4.007960937         24.03432200    
LM        2.687819230         4.007961937         24.03432200    
LM        4.031731040         6.385747937         23.94130200    
LM       -1.343910770         6.385747937         23.94130200    
LM        1.343909230         6.385747937         23.94130200    
LM        6.719551540         1.691236707         24.15856200    
LM        1.343910000         1.691236707         24.15857200    
LM        4.031730000         1.691246707         24.15856200    
LM        4.031730000         3.142236707         26.31732200    
LM       -1.343910000         3.142246707         26.31732200    
LM        1.343910000         3.142246707         26.31732200    
LM        2.687819230         5.506087937         26.24932200    
LM       -2.687820770         5.506087937         26.24932200    
LM      -0.7698769195E-06     5.506087937         26.24932200    
LM        5.375641540         1.172286707         26.25032200    
LM       0.1810000000E-05     1.172286707         26.25032200    
LM        2.687820000         1.172286707         26.25032200    
LM        4.206534225         4.791018779         1.265573263    
LM        4.241829608         3.263304610         6.655394933    
LM        5.441082736         3.935021158         3.295988334    
LM       -1.398357407         4.769408359         1.178581114    
LM       -1.428583562         3.131759125         5.631518564    
LM       0.6642818101E-01     3.817963676         3.349798797    
LM        1.261231705         4.647413096         1.226480472    
LM        1.351560143         3.057667273         5.485652936    
LM        2.730668388         3.911298301         3.334608357    
LM        2.756822761         6.936748323         1.116148084    
LM        2.791589290         5.298534340         5.664904896    
LM        4.164437724         6.265251310         3.194950944    
LM       -2.632502865         6.818543711         1.160696360    
LM       -2.666763927         5.467928625         5.503463381    
LM       -1.345239420         6.259262225         3.238781750    
LM      -0.1532766342         6.907137840         1.028025928    
LM      -0.2561515706E-01     5.521089934         5.596636538    
LM        1.378816029         6.202933992         3.363963628    
LM        5.357009683         2.377959496         1.133933244    
LM        5.309598635        0.8422705575         5.654840872    
LM        6.831920308         1.552362628         3.377841113    
LM       0.3808387175E-01     2.313033260         1.186807519    
LM       -3.921361493         7.731950101         5.575927894    
LM        1.331385849         1.489429242         3.432323282    
LM        2.682109236         2.224870580         1.165693817    
LM       -1.361411568         7.763632448         5.424784924    
LM        4.013302313         1.561377179         3.401130304    
LM        2.717070993         6.969817117         6.894226227    
LM      -0.1539994483E-02     3.944286844         6.908878294    
LM        4.592775404         3.677827521         8.105041548    
LM        2.961558350         2.025187950         6.664762847    
