58
-156694.8746 18229.91374 196955.07556 204797.68279
LM        4.031730000         4.891210000         21.67850000    
LM       -1.343910000         4.891210000         21.67850000    
LM        1.343910000         4.891200000         21.67850000    
LM        2.687820000         7.058570000         21.68060000    
LM       -2.687820000         7.058570000         21.68060000    
LM       0.9230100000E-05     7.058570000         21.68060000    
LM        5.375640000         2.363680000         21.83030000    
LM      -0.8000000000E-07     2.363680000         21.83030000    
LM        2.687820000         2.363680000         21.83030000    
LM        5.375640000         4.007960000         24.03430000    
LM      -0.7699000000E-06     4.007960000         24.03430000    
LM        2.687820000         4.007960000         24.03430000    
LM        4.031730000         6.385750000         23.94130000    
LM       -1.343910000         6.385750000         23.94130000    
LM        1.343910000         6.385750000         23.94130000    
LM        6.719550000         1.691240000         24.15860000    
LM        1.343910000         1.691240000         24.15860000    
LM        4.031730000         1.691250000         24.15860000    
LM        4.031730000         3.142240000         26.31730000    
LM       -1.343910000         3.142250000         26.31730000    
LM        1.343910000         3.142250000         26.31730000    
LM        2.687820000         5.506090000         26.24930000    
LM       -2.687820000         5.506090000         26.24930000    
LM      -0.7699000000E-06     5.506090000         26.24930000    
LM        5.375640000         1.172290000         26.25030000    
LM       0.1810000000E-05     1.172290000         26.25030000    
LM        2.687820000         1.172290000         26.25030000    
LM        4.200851145         4.797113725         1.259722683    
LM        4.054330074         3.033573959         5.960395934    
LM        5.437457868         3.957364769         3.286270771    
LM       -1.392764913         4.780875238         1.182743991    
LM       -1.304464310         3.102995530         5.497342143    
LM       0.5880622373E-01     3.813577250         3.357001968    
LM        1.260728886         4.640822588         1.227651808    
LM        1.421865424         3.022084735         5.500542977    
LM        2.745768744         3.947687785         3.340365286    
LM        2.753051604         6.935964807         1.105596208    
LM        2.731291567         5.387320741         5.673288231    
LM        4.151278093         6.266471989         3.206854399    
LM       -2.634806136         6.821596137         1.169399647    
LM       -2.655005560         5.429340817         5.579109698    
LM       -1.366281502         6.267117115         3.268354387    
LM      -0.1622004809         6.899343999         1.035633605    
LM      -0.4880005103E-01     5.470049315         5.581066699    
LM        1.350253150         6.220248912         3.334114189    
LM        5.354115724         2.376969854         1.135421278    
LM        5.345045097        0.8362805684         5.664794008    
LM        6.832002883         1.525162743         3.349212360    
LM       0.3861577135E-01     2.313600681         1.183744754    
LM       -3.876610134         7.739936690         5.575144580    
LM        1.322546204         1.478630182         3.429906402    
LM        2.683852995         2.224799289         1.172238581    
LM       -1.375921760         7.750045733         5.470134478    
LM        4.000820806         1.590212514         3.436268683    
LM        2.795477266         7.102986410         6.933584824    
LM        1.223404143         4.528833923         6.904163411    
LM        4.799956713         4.040272941         7.058547087    
LM        3.540597371         1.527305568         6.804036264    
