58
-156695.0764 19415.48104 196851.52866 204788.70504
LM        4.031731700         4.891207937         21.67851200    
LM       -1.343910770         4.891207937         21.67851200    
LM        1.343909230         4.891197937         21.67851200    
LM        2.687820770         7.058567937         21.68060200    
LM       -2.687820770         7.058567937         21.68061200    
LM       0.9230123082E-05     7.058567937         21.68060200    
LM        5.375641540         2.363676707         21.83031200    
LM      -0.8000000018E-07     2.363676707         21.83031200    
LM        2.687820000         2.363676707         21.83031200    
LM        5.375640770         4.007960937         24.03431200    
LM      -0.7698769200E-06     4.007960937         24.03432200    
LM        2.687819230         4.007961937         24.03432200    
LM        4.031731040         6.385747937         23.94130200    
LM       -1.343910770         6.385747937         23.94130200    
LM        1.343909230         6.385747937         23.94130200    
LM        6.719551540         1.691236707         24.15856200    
LM        1.343910000         1.691236707         24.15857200    
LM        4.031730000         1.691246707         24.15856200    
LM        4.031730000         3.142236707         26.31732200    
LM       -1.343910000         3.142246707         26.31732200    
LM        1.343910000         3.142246707         26.31732200    
LM        2.687819230         5.506087937         26.24932200    
LM       -2.687820770         5.506087937         26.24932200    
LM      -0.7698769195E-06     5.506087937         26.24932200    
LM        5.375641540         1.172286707         26.25032200    
LM       0.1810000000E-05     1.172286707         26.25032200    
LM        2.687820000         1.172286707         26.25032200    
LM        4.217696933         4.810309616         1.265003802    
LM        5.471784496         2.403843956         5.778152722    
LM        5.466172673         3.936522522         3.295332808    
LM       -1.398086383         4.783978511         1.165820539    
LM       0.7350039649E-01     2.388494702         5.560722791    
LM       0.1341918163         3.774745240         3.405705253    
LM        1.258972202         4.650579393         1.236989126    
LM        2.866497966         2.279140679         5.645864199    
LM        2.737292124         3.900480752         3.314606615    
LM        2.743693165         6.938408604         1.120119787    
LM        4.151289523         4.702482111         5.561621989    
LM        4.166090282         6.260269715         3.207495347    
LM       -2.640484043         6.843190945         1.142964316    
LM       -1.234691073         4.705891469         5.465958237    
LM       -1.345992520         6.279140717         3.209319440    
LM      -0.1411868518         6.905978205         1.021764833    
LM        1.365389948         4.715788171         5.631068281    
LM        1.370991693         6.200467016         3.391465469    
LM        5.354378062         2.376442587         1.135029442    
LM        6.656242652        0.8690309857E-01     5.649801963    
LM        6.837319951         1.549741487         3.386714962    
LM       0.3461749726E-01     2.318961265         1.190682160    
LM       -2.578521969         7.011473725         5.502368683    
LM        1.324526747         1.563615702         3.364932495    
LM        2.691430911         2.213929842         1.171920721    
LM       0.5766451912E-01     6.978856350         5.903262061    
LM        4.078695561         1.533536638         3.450339441    
LM        4.128506241         7.750539145         6.904559466    
LM        2.770741904         3.926005004         6.930744107    
LM        5.560897809         2.497819162         7.328369886    
LM        4.000422566       -0.5434969639E-01     7.452928957    
