58
-156695.0859 25173.80530 195543.72304 210075.02696
LM        4.031731700         4.891207937         21.67851200    
LM       -1.343910770         4.891207937         21.67851200    
LM        1.343909230         4.891197937         21.67851200    
LM        2.687820770         7.058567937         21.68060200    
LM       -2.687820770         7.058567937         21.68061200    
LM       0.9230123082E-05     7.058567937         21.68060200    
LM        5.375641540         2.363676707         21.83031200    
LM      -0.8000000018E-07     2.363676707         21.83031200    
LM        2.687820000         2.363676707         21.83031200    
LM        5.375640770         4.007960937         24.03431200    
LM      -0.7698769200E-06     4.007960937         24.03432200    
LM        2.687819230         4.007961937         24.03432200    
LM        4.031731040         6.385747937         23.94130200    
LM       -1.343910770         6.385747937         23.94130200    
LM        1.343909230         6.385747937         23.94130200    
LM        6.719551540         1.691236707         24.15856200    
LM        1.343910000         1.691236707         24.15857200    
LM        4.031730000         1.691246707         24.15856200    
LM        4.031730000         3.142236707         26.31732200    
LM       -1.343910000         3.142246707         26.31732200    
LM        1.343910000         3.142246707         26.31732200    
LM        2.687819230         5.506087937         26.24932200    
LM       -2.687820770         5.506087937         26.24932200    
LM      -0.7698769195E-06     5.506087937         26.24932200    
LM        5.375641540         1.172286707         26.25032200    
LM       0.1810000000E-05     1.172286707         26.25032200    
LM        2.687820000         1.172286707         26.25032200    
LM        4.221578990         4.799930752         1.257982145    
LM        7.093251769       -0.1697417952E-01     6.696344015    
LM        5.481638970         3.917763916         3.289095869    
LM       -1.407615331         4.783721969         1.158739926    
LM        1.266617229        0.4059164303E-01     5.421131345    
LM       0.1384921626         3.814191738         3.456470604    
LM        1.261532387         4.650029892         1.235647644    
LM        4.081130048       -0.9121628654E-01     5.645815919    
LM        2.731726992         3.890810739         3.341813496    
LM        2.752347282         6.937615306         1.124370282    
LM        5.602805134         2.128496682         5.910810414    
LM        4.183442418         6.239357948         3.176411718    
LM       -2.629790754         6.833721883         1.155510030    
LM       0.1421650041         2.393960018         5.573175990    
LM       -1.303418338         6.229706485         3.218525402    
LM      -0.1492605015         6.918850041         1.005133003    
LM        2.716100981         2.402822885         5.634360191    
LM        1.439057008         6.183619345         3.417951470    
LM        5.363993128         2.368914055         1.126857031    
LM        8.043255414        -2.203486705         5.541902442    
LM        6.852654775         1.488057810         3.470525146    
LM       0.2870122584E-01     2.308557235         1.213436508    
LM       -1.221966857         4.651124057         5.558669530    
LM        1.332324100         1.540857010         3.371227505    
LM        2.679566170         2.224811747         1.162068176    
LM        1.372655496         4.605815183         5.444344743    
LM        4.081161109         1.526727193         3.362168415    
LM        5.447900840         3.997163319         6.878777281    
LM        3.931120537         1.461454960         6.985334269    
LM        7.592977178        0.3202469070         8.121503833    
LM        5.716064768        -1.160863973         6.728678078    
