58
-156694.8812 19397.34147 196123.44726 204306.91300
LM        4.031730000         4.891210000         21.67850000    
LM       -1.343910000         4.891210000         21.67850000    
LM        1.343910000         4.891200000         21.67850000    
LM        2.687820000         7.058570000         21.68060000    
LM       -2.687820000         7.058570000         21.68060000    
LM       0.9230100000E-05     7.058570000         21.68060000    
LM        5.375640000         2.363680000         21.83030000    
LM      -0.8000000000E-07     2.363680000         21.83030000    
LM        2.687820000         2.363680000         21.83030000    
LM        5.375640000         4.007960000         24.03430000    
LM      -0.7699000000E-06     4.007960000         24.03430000    
LM        2.687820000         4.007960000         24.03430000    
LM        4.031730000         6.385750000         23.94130000    
LM       -1.343910000         6.385750000         23.94130000    
LM        1.343910000         6.385750000         23.94130000    
LM        6.719550000         1.691240000         24.15860000    
LM        1.343910000         1.691240000         24.15860000    
LM        4.031730000         1.691250000         24.15860000    
LM        4.031730000         3.142240000         26.31730000    
LM       -1.343910000         3.142250000         26.31730000    
LM        1.343910000         3.142250000         26.31730000    
LM        2.687820000         5.506090000         26.24930000    
LM       -2.687820000         5.506090000         26.24930000    
LM      -0.7699000000E-06     5.506090000         26.24930000    
LM        5.375640000         1.172290000         26.25030000    
LM       0.1810000000E-05     1.172290000         26.25030000    
LM        2.687820000         1.172290000         26.25030000    
LM        4.231660199         4.807741331         1.277472088    
LM        5.210780592         1.926373558         6.563540694    
LM        5.482267002         3.920176054         3.311407091    
LM       -1.401556318         4.778479329         1.169446248    
LM       0.4371864107E-01     2.384376670         5.580378905    
LM       0.1365500928         3.748500550         3.434122383    
LM        1.255984598         4.651440442         1.239334236    
LM        2.822749580         2.305175592         5.588247626    
LM        2.750085797         3.908804504         3.312625628    
LM        2.748609073         6.934158923         1.119353167    
LM        4.187409081         4.654170038         5.584616046    
LM        4.174544190         6.250536649         3.211483263    
LM       -2.637172835         6.843363329         1.144117477    
LM       -1.228514978         4.692065951         5.507377970    
LM       -1.341498704         6.269334083         3.217116289    
LM      -0.1446757709         6.911143496         1.016644022    
LM        1.363646167         4.714456288         5.664948255    
LM        1.379954788         6.200086743         3.392041357    
LM        5.358924706         2.378929103         1.133902859    
LM        6.736660128        0.4658795861E-01     5.626373883    
LM        6.845599011         1.538733155         3.386406894    
LM       0.3290584574E-01     2.321321733         1.192060663    
LM       -2.555621948         6.987433324         5.528227415    
LM        1.325075988         1.575272231         3.384651128    
LM        2.685438184         2.220566721         1.165000217    
LM       0.5419406738E-01     6.929860310         5.547325769    
LM        4.072560409         1.528639808         3.403976805    
LM        4.168111431         7.752605352         6.916992796    
LM        2.791538594         3.927792856         6.937905306    
LM        5.831314548         2.858497574         7.664341947    
LM        4.336921491        0.5239739964         7.149446265    
