58
-156696.2486 18267.12734 193812.15581 201952.22922
LM        4.031730000         4.891210000         21.67850000    
LM       -1.343910000         4.891210000         21.67850000    
LM        1.343910000         4.891200000         21.67850000    
LM        2.687820000         7.058570000         21.68060000    
LM       -2.687820000         7.058570000         21.68060000    
LM       0.9230100000E-05     7.058570000         21.68060000    
LM        5.375640000         2.363680000         21.83030000    
LM      -0.8000000000E-07     2.363680000         21.83030000    
LM        2.687820000         2.363680000         21.83030000    
LM        5.375640000         4.007960000         24.03430000    
LM      -0.7699000000E-06     4.007960000         24.03430000    
LM        2.687820000         4.007960000         24.03430000    
LM        4.031730000         6.385750000         23.94130000    
LM       -1.343910000         6.385750000         23.94130000    
LM        1.343910000         6.385750000         23.94130000    
LM        6.719550000         1.691240000         24.15860000    
LM        1.343910000         1.691240000         24.15860000    
LM        4.031730000         1.691250000         24.15860000    
LM        4.031730000         3.142240000         26.31730000    
LM       -1.343910000         3.142250000         26.31730000    
LM        1.343910000         3.142250000         26.31730000    
LM        2.687820000         5.506090000         26.24930000    
LM       -2.687820000         5.506090000         26.24930000    
LM      -0.7699000000E-06     5.506090000         26.24930000    
LM        5.375640000         1.172290000         26.25030000    
LM       0.1810000000E-05     1.172290000         26.25030000    
LM        2.687820000         1.172290000         26.25030000    
LM        4.228490668         4.817322698         1.280191238    
LM        4.724719974         2.247392265         7.232527202    
LM        5.482771296         3.951304524         3.325093893    
LM       -1.400481676         4.791405160         1.173603390    
LM      -0.4197479368E-01     2.372413076         5.601592079    
LM       0.1326557420         3.742079663         3.428749456    
LM        1.264397130         4.638045970         1.237542064    
LM        2.748994011         2.300644615         5.605977619    
LM        2.773254549         3.921917098         3.330956497    
LM        2.735231702         6.943230290         1.102419065    
LM        4.188074377         4.473856380         5.745765939    
LM        4.167325032         6.295269726         3.160157146    
LM       -2.642425441         6.852051464         1.120631893    
LM       -1.192727047         4.771217919         5.491092606    
LM       -1.362131254         6.310938022         3.207023152    
LM      -0.1412399615         6.907356649         1.016116244    
LM        1.382990054         4.647860946         5.603831364    
LM        1.354611666         6.207788792         3.353003029    
LM        5.357390183         2.395225432         1.137895715    
LM        6.776920263       -0.9215875127E-01     5.531004951    
LM        6.825837552         1.540824210         3.392601996    
LM       0.3235739083E-01     2.318060011         1.194583082    
LM       -2.582479688         7.024611385         5.533812112    
LM        1.290933025         1.596247819         3.442650723    
LM        2.685599251         2.220501783         1.176070487    
LM       0.1032508395         6.967579511         5.514755848    
LM        4.078862195         1.554423962         3.422245934    
LM        4.159815915         6.186035404         6.897666152    
LM        6.358967370         2.361774878         6.946924025    
LM        4.250506630         2.775083551         8.629065099    
LM        4.360883237        0.5256960023         7.123673807    
