58
-156695.3894 19855.59585 194833.36665 203715.17839
LM        4.031730000         4.891210000         21.67850000    
LM       -1.343910000         4.891210000         21.67850000    
LM        1.343910000         4.891200000         21.67850000    
LM        2.687820000         7.058570000         21.68060000    
LM       -2.687820000         7.058570000         21.68060000    
LM       0.9230100000E-05     7.058570000         21.68060000    
LM        5.375640000         2.363680000         21.83030000    
LM      -0.8000000000E-07     2.363680000         21.83030000    
LM        2.687820000         2.363680000         21.83030000    
LM        5.375640000         4.007960000         24.03430000    
LM      -0.7699000000E-06     4.007960000         24.03430000    
LM        2.687820000         4.007960000         24.03430000    
LM        4.031730000         6.385750000         23.94130000    
LM       -1.343910000         6.385750000         23.94130000    
LM        1.343910000         6.385750000         23.94130000    
LM        6.719550000         1.691240000         24.15860000    
LM        1.343910000         1.691240000         24.15860000    
LM        4.031730000         1.691250000         24.15860000    
LM        4.031730000         3.142240000         26.31730000    
LM       -1.343910000         3.142250000         26.31730000    
LM        1.343910000         3.142250000         26.31730000    
LM        2.687820000         5.506090000         26.24930000    
LM       -2.687820000         5.506090000         26.24930000    
LM      -0.7699000000E-06     5.506090000         26.24930000    
LM        5.375640000         1.172290000         26.25030000    
LM       0.1810000000E-05     1.172290000         26.25030000    
LM        2.687820000         1.172290000         26.25030000    
LM        4.234062413         4.804716304         1.280268680    
LM        6.190467267         2.779277368         6.655387473    
LM        5.459288191         3.929258527         3.324719377    
LM       -1.405936095         4.733800300         1.149446471    
LM       0.3089773248         2.419688831         5.451031595    
LM       0.1079843654         3.840692407         3.339890963    
LM        1.276674238         4.671783670         1.251986853    
LM        3.926243463         1.939115464         6.124873123    
LM        2.737776170         3.894660774         3.389108423    
LM        2.751620235         6.946482161         1.121600475    
LM        4.403320309         4.493336394         5.749211703    
LM        4.168188987         6.315823053         3.302622921    
LM       -2.621643378         6.846482826         1.111411512    
LM       -1.034858666         4.754375811         5.470184759    
LM       -1.297291864         6.225588762         3.139937526    
LM      -0.1354159560         6.948208125        0.9711036798    
LM        1.608974226         4.747454771         5.749422080    
LM        1.406954305         6.202184288         3.432925714    
LM        5.340655119         2.365914722         1.142871611    
LM        6.217692440        0.4834281529         5.749211585    
LM        6.832339918         1.582247086         3.393203140    
LM       0.2756855073E-01     2.334431663         1.178391745    
LM       -2.030091470         7.304573116         5.502417294    
LM        1.313742826         1.449962636         3.284290936    
LM        2.688034966         2.237529972         1.170387765    
LM       0.9282035440E-01     6.540568014         6.690742801    
LM        4.008272232         1.537893634         3.446750920    
LM        4.112254619         6.493224965         5.186091835    
LM        2.897478787         3.562060476         6.900276243    
LM        6.385660010         2.808643009         8.187790764    
LM        4.015818825       -0.5557313916         8.229086314    
