58
-156696.0842 21014.48696 193892.62772 204892.52167
LM        4.031731700         4.891207937         21.67851200    
LM       -1.343910770         4.891207937         21.67851200    
LM        1.343909230         4.891197937         21.67851200    
LM        2.687820770         7.058567937         21.68060200    
LM       -2.687820770         7.058567937         21.68061200    
LM       0.9230123082E-05     7.058567937         21.68060200    
LM        5.375641540         2.363676707         21.83031200    
LM      -0.8000000018E-07     2.363676707         21.83031200    
LM        2.687820000         2.363676707         21.83031200    
LM        5.375640770         4.007960937         24.03431200    
LM      -0.7698769200E-06     4.007960937         24.03432200    
LM        2.687819230         4.007961937         24.03432200    
LM        4.031731040         6.385747937         23.94130200    
LM       -1.343910770         6.385747937         23.94130200    
LM        1.343909230         6.385747937         23.94130200    
LM        6.719551540         1.691236707         24.15856200    
LM        1.343910000         1.691236707         24.15857200    
LM        4.031730000         1.691246707         24.15856200    
LM        4.031730000         3.142236707         26.31732200    
LM       -1.343910000         3.142246707         26.31732200    
LM        1.343910000         3.142246707         26.31732200    
LM        2.687819230         5.506087937         26.24932200    
LM       -2.687820770         5.506087937         26.24932200    
LM      -0.7698769195E-06     5.506087937         26.24932200    
LM        5.375641540         1.172286707         26.25032200    
LM       0.1810000000E-05     1.172286707         26.25032200    
LM        2.687820000         1.172286707         26.25032200    
LM        4.230315063         4.802751801         1.266191721    
LM        5.801695374         1.750468228         7.253808283    
LM        5.490065376         3.937786412         3.313156196    
LM       -1.401338202         4.785207123         1.166709445    
LM      -0.5201178600E-01     2.352026711         5.657123018    
LM       0.1276333343         3.727533364         3.450765147    
LM        1.254053059         4.644145625         1.247904431    
LM        2.655557775         2.249492606         5.496505048    
LM        2.782204773         3.934109908         3.321838346    
LM        2.737033354         6.936756001         1.110913813    
LM        4.151621041         4.407676299         5.685166948    
LM        4.183743070         6.277320259         3.150662846    
LM       -2.635967303         6.849225161         1.127845275    
LM       -1.166818355         4.741237765         5.478138187    
LM       -1.339150439         6.288526975         3.205652271    
LM      -0.1391444982         6.914284580         1.009890527    
LM        1.391345541         4.647369198         5.615422925    
LM        1.382577814         6.206642838         3.389731945    
LM        5.360557555         2.382903569         1.134193435    
LM        6.726564348       -0.1739430421E-01     5.673083120    
LM        6.835442620         1.519388862         3.419855166    
LM       0.3011129545E-01     2.315119917         1.202410837    
LM       -2.627286462         6.963329587         5.507566741    
LM        1.287258807         1.532782725         3.405074572    
LM        2.685681251         2.226266463         1.170711012    
LM       0.5145049636E-01     7.002751436         5.538592569    
LM        4.094086001         1.543509892         3.404900361    
LM        4.189173402         6.076511196         6.882492642    
LM        5.150940155         3.262785612         7.122411571    
LM        6.564766385         1.511271686         8.598425488    
LM        4.399428004        0.6761122508         7.095664645    
