58
-156696.0177 20465.85216 195362.71325 205698.95788
LM        4.031730000         4.891210000         21.67850000    
LM       -1.343910000         4.891210000         21.67850000    
LM        1.343910000         4.891200000         21.67850000    
LM        2.687820000         7.058570000         21.68060000    
LM       -2.687820000         7.058570000         21.68060000    
LM       0.9230100000E-05     7.058570000         21.68060000    
LM        5.375640000         2.363680000         21.83030000    
LM      -0.8000000000E-07     2.363680000         21.83030000    
LM        2.687820000         2.363680000         21.83030000    
LM        5.375640000         4.007960000         24.03430000    
LM      -0.7699000000E-06     4.007960000         24.03430000    
LM        2.687820000         4.007960000         24.03430000    
LM        4.031730000         6.385750000         23.94130000    
LM       -1.343910000         6.385750000         23.94130000    
LM        1.343910000         6.385750000         23.94130000    
LM        6.719550000         1.691240000         24.15860000    
LM        1.343910000         1.691240000         24.15860000    
LM        4.031730000         1.691250000         24.15860000    
LM        4.031730000         3.142240000         26.31730000    
LM       -1.343910000         3.142250000         26.31730000    
LM        1.343910000         3.142250000         26.31730000    
LM        2.687820000         5.506090000         26.24930000    
LM       -2.687820000         5.506090000         26.24930000    
LM      -0.7699000000E-06     5.506090000         26.24930000    
LM        5.375640000         1.172290000         26.25030000    
LM       0.1810000000E-05     1.172290000         26.25030000    
LM        2.687820000         1.172290000         26.25030000    
LM        4.232087975         4.812818359         1.283577271    
LM        5.128649428         2.158602377         6.928715479    
LM        5.469616841         3.945019177         3.347698532    
LM       -1.403852467         4.781182476         1.175862647    
LM       0.1895384954E-03     2.358025930         5.608772944    
LM       0.1329368561         3.733985457         3.432930565    
LM        1.263586827         4.634437070         1.236708750    
LM        2.720108519         2.266681141         5.519442765    
LM        2.781634925         3.931234688         3.331703879    
LM        2.735179000         6.941252083         1.104180586    
LM        4.176597340         4.470779846         5.812122691    
LM        4.167330731         6.293124881         3.158949604    
LM       -2.638154644         6.850930259         1.122251074    
LM       -1.189412907         4.744141733         5.502461303    
LM       -1.360374712         6.290247099         3.207439315    
LM      -0.1417024094         6.907272757         1.019805429    
LM        1.386817408         4.645340108         5.604844463    
LM        1.350765062         6.200207384         3.350900677    
LM        5.360438747         2.398272375         1.136827691    
LM        6.780295719       -0.1035976532         5.510084126    
LM        6.827944835         1.542799471         3.397038709    
LM       0.3239900797E-01     2.314933532         1.195350951    
LM       -2.577614485         6.990519944         5.528786696    
LM        1.291985012         1.574717888         3.423140889    
LM        2.686353713         2.224462289         1.170907401    
LM       0.9301203464E-01     6.961767665         5.543979030    
LM        4.083409945         1.537842927         3.392777249    
LM        4.150953758         6.242871039         6.903258501    
LM        4.356480300         3.401727111         7.670064944    
LM        6.765269630         2.191924082         7.245369339    
LM        4.405323157        0.5837676433         7.141919940    
