58
-156695.3893 21614.93504 195937.02480 206829.58794
LM        4.031730000         4.891210000         21.67850000    
LM       -1.343910000         4.891210000         21.67850000    
LM        1.343910000         4.891200000         21.67850000    
LM        2.687820000         7.058570000         21.68060000    
LM       -2.687820000         7.058570000         21.68060000    
LM       0.9230100000E-05     7.058570000         21.68060000    
LM        5.375640000         2.363680000         21.83030000    
LM      -0.8000000000E-07     2.363680000         21.83030000    
LM        2.687820000         2.363680000         21.83030000    
LM        5.375640000         4.007960000         24.03430000    
LM      -0.7699000000E-06     4.007960000         24.03430000    
LM        2.687820000         4.007960000         24.03430000    
LM        4.031730000         6.385750000         23.94130000    
LM       -1.343910000         6.385750000         23.94130000    
LM        1.343910000         6.385750000         23.94130000    
LM        6.719550000         1.691240000         24.15860000    
LM        1.343910000         1.691240000         24.15860000    
LM        4.031730000         1.691250000         24.15860000    
LM        4.031730000         3.142240000         26.31730000    
LM       -1.343910000         3.142250000         26.31730000    
LM        1.343910000         3.142250000         26.31730000    
LM        2.687820000         5.506090000         26.24930000    
LM       -2.687820000         5.506090000         26.24930000    
LM      -0.7699000000E-06     5.506090000         26.24930000    
LM        5.375640000         1.172290000         26.25030000    
LM       0.1810000000E-05     1.172290000         26.25030000    
LM        2.687820000         1.172290000         26.25030000    
LM        4.198834367         4.729659068         1.235573792    
LM        6.909545342         1.809049638         6.329275938    
LM        6.709590018         3.114848193         3.354726033    
LM       -1.461913089         4.774657240         1.208081556    
LM        1.349497132         1.589627388         5.470147488    
LM        1.403642652         3.050311053         3.412581054    
LM        1.331757895         4.610563492         1.221382625    
LM        4.346839344         1.295996259         5.705346685    
LM        3.993639388         3.078374025         3.390153135    
LM        2.727784411         6.947640825         1.074349788    
LM        5.391431780         3.822061393         5.680141954    
LM        5.434463826         5.458609621         3.097637996    
LM       -2.545288468         6.809660792         1.189664091    
LM      -0.1545856215E-02     3.892411739         5.501480697    
LM      -0.8288866633E-01     5.452347463         3.262968975    
LM      -0.2059710985         6.884150621         1.149796814    
LM        2.597967350         3.968643689         5.612379567    
LM        2.746433642         5.383777276         3.324666923    
LM        5.352483545         2.378602113         1.132153278    
LM        7.579447200       -0.4582794556         5.676628393    
LM        8.184130187        0.7244071656         3.285541622    
LM       0.1353181967E-01     2.315855235         1.159727909    
LM       -1.389514675         6.241593440         5.458313053    
LM        2.639078421        0.6347882294         3.185009342    
LM        2.683625070         2.212254818         1.191463705    
LM        1.146517503         6.001199873         6.330877913    
LM        5.339748653        0.7203383741         3.316761644    
LM        5.160761012         5.660125288         6.722080013    
LM        3.863124690         2.909998518         6.880370767    
LM        6.969459357         1.825039976         7.867323771    
LM        5.109603372        -1.023295015         7.869099183    
