58
-156694.8671 19658.32728 196742.69978 205872.47735
LM        4.031731700         4.891207937         21.67851200    
LM       -1.343910770         4.891207937         21.67851200    
LM        1.343909230         4.891197937         21.67851200    
LM        2.687820770         7.058567937         21.68060200    
LM       -2.687820770         7.058567937         21.68061200    
LM       0.9230123082E-05     7.058567937         21.68060200    
LM        5.375641540         2.363676707         21.83031200    
LM      -0.8000000018E-07     2.363676707         21.83031200    
LM        2.687820000         2.363676707         21.83031200    
LM        5.375640770         4.007960937         24.03431200    
LM      -0.7698769200E-06     4.007960937         24.03432200    
LM        2.687819230         4.007961937         24.03432200    
LM        4.031731040         6.385747937         23.94130200    
LM       -1.343910770         6.385747937         23.94130200    
LM        1.343909230         6.385747937         23.94130200    
LM        6.719551540         1.691236707         24.15856200    
LM        1.343910000         1.691236707         24.15857200    
LM        4.031730000         1.691246707         24.15856200    
LM        4.031730000         3.142236707         26.31732200    
LM       -1.343910000         3.142246707         26.31732200    
LM        1.343910000         3.142246707         26.31732200    
LM        2.687819230         5.506087937         26.24932200    
LM       -2.687820770         5.506087937         26.24932200    
LM      -0.7698769195E-06     5.506087937         26.24932200    
LM        5.375641540         1.172286707         26.25032200    
LM       0.1810000000E-05     1.172286707         26.25032200    
LM        2.687820000         1.172286707         26.25032200    
LM        4.218508105         4.758856102         1.238792504    
LM        5.388087513         1.880007914         6.516753288    
LM        6.752512658         3.143663227         3.360346129    
LM       -1.454565797         4.791307382         1.246799573    
LM       0.1399787152         2.263164003         5.464547388    
LM        1.441326497         3.004355456         3.384177568    
LM        1.303877065         4.625599701         1.239055197    
LM        2.854820248         2.167369786         5.451934387    
LM        4.057004379         3.163755928         3.307485867    
LM        2.703349651         6.960810696         1.072965589    
LM        4.131648033         4.583386725         5.638270823    
LM        5.444923994         5.478944205         3.129587693    
LM       -2.537074530         6.818715290         1.176552610    
LM       -1.260560482         4.529627536         5.709126263    
LM      -0.8051323433E-01     5.464691854         3.375099177    
LM      -0.1952182004         6.881009328         1.188378081    
LM        1.360488682         4.643148065         5.601578331    
LM        2.751351041         5.402342903         3.304625051    
LM        5.362065764         2.373712762         1.125613220    
LM        6.748962432        0.3634723641E-01     5.561021434    
LM        8.223618485        0.7342084976         3.253052077    
LM       0.1342962526E-01     2.322266999         1.149814616    
LM       -2.461998994         6.874692552         5.470025624    
LM        2.673887251        0.6666339847         3.231842258    
LM        2.688039095         2.212296562         1.184003928    
LM       0.6625074091E-01     6.851684021         5.596882829    
LM        5.296707329        0.7785311805         3.397420996    
LM        4.186559523         6.313464467         6.862290870    
LM        2.682961195         3.674916995         6.871253770    
LM        6.152323091         3.100395491         7.291307903    
LM        4.444742530        0.5827791926         7.158052470    
