58
-156695.0093 19056.72321 194957.73626 202947.15722
LM        4.031730000         4.891210000         21.67850000    
LM       -1.343910000         4.891210000         21.67850000    
LM        1.343910000         4.891200000         21.67850000    
LM        2.687820000         7.058570000         21.68060000    
LM       -2.687820000         7.058570000         21.68060000    
LM       0.9230100000E-05     7.058570000         21.68060000    
LM        5.375640000         2.363680000         21.83030000    
LM      -0.8000000000E-07     2.363680000         21.83030000    
LM        2.687820000         2.363680000         21.83030000    
LM        5.375640000         4.007960000         24.03430000    
LM      -0.7699000000E-06     4.007960000         24.03430000    
LM        2.687820000         4.007960000         24.03430000    
LM        4.031730000         6.385750000         23.94130000    
LM       -1.343910000         6.385750000         23.94130000    
LM        1.343910000         6.385750000         23.94130000    
LM        6.719550000         1.691240000         24.15860000    
LM        1.343910000         1.691240000         24.15860000    
LM        4.031730000         1.691250000         24.15860000    
LM        4.031730000         3.142240000         26.31730000    
LM       -1.343910000         3.142250000         26.31730000    
LM        1.343910000         3.142250000         26.31730000    
LM        2.687820000         5.506090000         26.24930000    
LM       -2.687820000         5.506090000         26.24930000    
LM      -0.7699000000E-06     5.506090000         26.24930000    
LM        5.375640000         1.172290000         26.25030000    
LM       0.1810000000E-05     1.172290000         26.25030000    
LM        2.687820000         1.172290000         26.25030000    
LM        4.206916676         4.804140887         1.267819262    
LM        5.650142051         2.887524158         6.497306375    
LM        5.428866982         3.945801417         3.307342730    
LM       -1.401964573         4.780280661         1.178507158    
LM      -0.4814565132E-01     2.450198552         5.519399225    
LM       0.9542372985E-01     3.822528670         3.392570588    
LM        1.274779178         4.643437404         1.245023965    
LM        3.277506512         2.122653686         5.855462792    
LM        2.708602589         3.866080165         3.398848884    
LM        2.736867222         6.946508460         1.098835544    
LM        4.055800630         4.808599114         5.606221316    
LM        4.172794474         6.264089979         3.160751831    
LM       -2.640678631         6.845561094         1.134391320    
LM       -1.342953414         4.796123996         5.467378090    
LM       -1.352391146         6.288319213         3.198517606    
LM      -0.1416613304         6.915825416         1.012570780    
LM        1.255146298         4.829793130         5.654592478    
LM        1.403895491         6.192520962         3.368059986    
LM        5.353831253         2.388492916         1.132967494    
LM        5.812490286        0.6029054596         5.680181001    
LM        6.852415594         1.519850754         3.369109670    
LM       0.3005266006E-01     2.329819056         1.182142893    
LM       -2.635084056         7.181196688         5.461795035    
LM        1.296950963         1.562199137         3.336946498    
LM        2.690304713         2.223076009         1.174968763    
LM      -0.3428187572         6.727607519         6.540212106    
LM        4.073902011         1.532554060         3.411833745    
LM        3.621867412         6.763605470         6.412463247    
LM        2.607885444         3.805015995         6.843353532    
LM        5.757945145         2.938639034         8.035268274    
LM        3.603570520       -0.3400333268         8.080159129    
