58
-156694.7309 19002.22645 195197.67719 204244.13475
LM        4.031730000         4.891210000         21.67850000    
LM       -1.343910000         4.891210000         21.67850000    
LM        1.343910000         4.891200000         21.67850000    
LM        2.687820000         7.058570000         21.68060000    
LM       -2.687820000         7.058570000         21.68060000    
LM       0.9230100000E-05     7.058570000         21.68060000    
LM        5.375640000         2.363680000         21.83030000    
LM      -0.8000000000E-07     2.363680000         21.83030000    
LM        2.687820000         2.363680000         21.83030000    
LM        5.375640000         4.007960000         24.03430000    
LM      -0.7699000000E-06     4.007960000         24.03430000    
LM        2.687820000         4.007960000         24.03430000    
LM        4.031730000         6.385750000         23.94130000    
LM       -1.343910000         6.385750000         23.94130000    
LM        1.343910000         6.385750000         23.94130000    
LM        6.719550000         1.691240000         24.15860000    
LM        1.343910000         1.691240000         24.15860000    
LM        4.031730000         1.691250000         24.15860000    
LM        4.031730000         3.142240000         26.31730000    
LM       -1.343910000         3.142250000         26.31730000    
LM        1.343910000         3.142250000         26.31730000    
LM        2.687820000         5.506090000         26.24930000    
LM       -2.687820000         5.506090000         26.24930000    
LM      -0.7699000000E-06     5.506090000         26.24930000    
LM        5.375640000         1.172290000         26.25030000    
LM       0.1810000000E-05     1.172290000         26.25030000    
LM        2.687820000         1.172290000         26.25030000    
LM        4.228649377         4.804517912         1.279720342    
LM        5.286911233         2.052889398         6.602628861    
LM        5.479780524         3.926501599         3.319177527    
LM       -1.400115365         4.763389207         1.164849608    
LM       0.5611106527E-01     2.384705635         5.548516085    
LM       0.1172840115         3.774081534         3.385321471    
LM        1.265585849         4.659071380         1.245073812    
LM        2.842044578         2.303662410         5.617257794    
LM        2.747639575         3.908927039         3.345528551    
LM        2.742261459         6.935527417         1.125010017    
LM        4.244956092         4.622221736         5.623503669    
LM        4.185404556         6.272674155         3.191659030    
LM       -2.640038280         6.845539619         1.134395570    
LM       -1.180701904         4.744369870         5.486054464    
LM       -1.314983104         6.265196985         3.180891291    
LM      -0.1377134823         6.925261270        0.9941860799    
LM        1.409379647         4.751248346         5.802373136    
LM        1.386757695         6.184512943         3.434317616    
LM        5.356314604         2.378416447         1.137827603    
LM        6.795198585        0.1052084761         5.650039819    
LM        6.842442070         1.539857642         3.397178612    
LM       0.3044999667E-01     2.324552361         1.188191293    
LM       -2.566952058         7.010236215         5.441482398    
LM        1.303967581         1.563851007         3.357017076    
LM        2.685829142         2.227627010         1.170135046    
LM       0.5253213878E-01     6.985112924         5.557945840    
LM        4.074683285         1.537111165         3.411135557    
LM        3.001906275         5.547570136         6.978720655    
LM        1.402169480         2.987269924         6.973148706    
LM        5.960616063         2.864433301         7.756690436    
LM        4.387195431        0.6392017780         7.127206409    
