58
-156695.2695 21872.21334 196322.75037 207275.97783
LM        4.031731700         4.891207937         21.67851200    
LM       -1.343910770         4.891207937         21.67851200    
LM        1.343909230         4.891197937         21.67851200    
LM        2.687820770         7.058567937         21.68060200    
LM       -2.687820770         7.058567937         21.68061200    
LM       0.9230123082E-05     7.058567937         21.68060200    
LM        5.375641540         2.363676707         21.83031200    
LM      -0.8000000018E-07     2.363676707         21.83031200    
LM        2.687820000         2.363676707         21.83031200    
LM        5.375640770         4.007960937         24.03431200    
LM      -0.7698769200E-06     4.007960937         24.03432200    
LM        2.687819230         4.007961937         24.03432200    
LM        4.031731040         6.385747937         23.94130200    
LM       -1.343910770         6.385747937         23.94130200    
LM        1.343909230         6.385747937         23.94130200    
LM        6.719551540         1.691236707         24.15856200    
LM        1.343910000         1.691236707         24.15857200    
LM        4.031730000         1.691246707         24.15856200    
LM        4.031730000         3.142236707         26.31732200    
LM       -1.343910000         3.142246707         26.31732200    
LM        1.343910000         3.142246707         26.31732200    
LM        2.687819230         5.506087937         26.24932200    
LM       -2.687820770         5.506087937         26.24932200    
LM      -0.7698769195E-06     5.506087937         26.24932200    
LM        5.375641540         1.172286707         26.25032200    
LM       0.1810000000E-05     1.172286707         26.25032200    
LM        2.687820000         1.172286707         26.25032200    
LM        4.213649037         4.745232545         1.245567141    
LM        6.930666469         1.881387523         6.674216664    
LM        6.746730356         3.116762680         3.356907314    
LM       -1.466235950         4.775602105         1.220360088    
LM        1.246455210         1.572529910         5.611843656    
LM        1.419371751         2.961814130         3.461537529    
LM        1.317612967         4.610880692         1.225847064    
LM        4.057943975         1.472230718         5.573823441    
LM        4.000852183         3.104299309         3.340264570    
LM        2.728951095         6.945082265         1.076957588    
LM        5.477499748         3.770404427         5.669638136    
LM        5.426833230         5.463813302         3.141905402    
LM       -2.541844878         6.808744896         1.211646749    
LM       0.5533268241E-01     3.906191310         5.524327406    
LM      -0.9093151362E-01     5.474689647         3.277626105    
LM      -0.2112242336         6.887034665         1.144977263    
LM        2.628431372         3.937805519         5.652480453    
LM        2.716856056         5.379803992         3.340422808    
LM        5.360967745         2.384174376         1.125343015    
LM        8.066413021       -0.8145431832         5.537687453    
LM        8.181604533        0.7335912504         3.298322037    
LM       0.1512791930E-01     2.310944189         1.159483207    
LM       -1.266285115         6.183417806         5.553634511    
LM        2.644045967        0.6862176937         3.217691965    
LM        2.679879799         2.212726038         1.183543261    
LM        1.400369373         6.218485896         5.498681370    
LM        5.331198387        0.7424918558         3.327960154    
LM        5.412688906         6.901169304         6.907668284    
LM        3.973871219         3.081857962         6.947317344    
LM        7.277483583         2.337931862         8.115978528    
LM        5.857807875        0.4549242431         6.685801549    
