58
-156694.7221 19615.00068 196564.97153 203569.66185
LM        4.031730000         4.891210000         21.67850000    
LM       -1.343910000         4.891210000         21.67850000    
LM        1.343910000         4.891200000         21.67850000    
LM        2.687820000         7.058570000         21.68060000    
LM       -2.687820000         7.058570000         21.68060000    
LM       0.9230100000E-05     7.058570000         21.68060000    
LM        5.375640000         2.363680000         21.83030000    
LM      -0.8000000000E-07     2.363680000         21.83030000    
LM        2.687820000         2.363680000         21.83030000    
LM        5.375640000         4.007960000         24.03430000    
LM      -0.7699000000E-06     4.007960000         24.03430000    
LM        2.687820000         4.007960000         24.03430000    
LM        4.031730000         6.385750000         23.94130000    
LM       -1.343910000         6.385750000         23.94130000    
LM        1.343910000         6.385750000         23.94130000    
LM        6.719550000         1.691240000         24.15860000    
LM        1.343910000         1.691240000         24.15860000    
LM        4.031730000         1.691250000         24.15860000    
LM        4.031730000         3.142240000         26.31730000    
LM       -1.343910000         3.142250000         26.31730000    
LM        1.343910000         3.142250000         26.31730000    
LM        2.687820000         5.506090000         26.24930000    
LM       -2.687820000         5.506090000         26.24930000    
LM      -0.7699000000E-06     5.506090000         26.24930000    
LM        5.375640000         1.172290000         26.25030000    
LM       0.1810000000E-05     1.172290000         26.25030000    
LM        2.687820000         1.172290000         26.25030000    
LM        4.225232722         4.812858179         1.275647326    
LM        4.427815351         4.874636580         6.685935190    
LM        5.448665801         3.964013594         3.314295948    
LM       -1.408727127         4.789815602         1.173085578    
LM       -1.351492722         4.685449291         5.562060048    
LM       0.1190463314         3.778861943         3.423440355    
LM        1.257991152         4.651677519         1.238974458    
LM        1.354307766         4.589767303         5.553487798    
LM        2.749508667         3.933950773         3.357481933    
LM        2.761125561         6.944011728         1.111258427    
LM        2.849574513         6.804968177         5.733555654    
LM        4.140463300         6.270975747         3.209862185    
LM       -2.636775047         6.831715286         1.127424297    
LM       -2.642530126         6.983073433         5.443914610    
LM       -1.345504244         6.265343308         3.202219691    
LM      -0.1625222484         6.912620659         1.010811478    
LM      -0.3399528118E-01     7.073307857         5.695255517    
LM        1.401395895         6.222727873         3.356169599    
LM        5.360921151         2.390762102         1.134687010    
LM        5.352595625         2.419916639         5.671741984    
LM        6.846743423         1.530927001         3.410738879    
LM       0.3732773990E-01     2.314423854         1.198675999    
LM       -3.879826492         9.314540649         5.614285135    
LM        1.352068424         1.643952418         3.448510680    
LM        2.686566157         2.237858889         1.155993839    
LM       -1.360111662         9.303611923         5.422024262    
LM        4.032325177         1.569324367         3.385556351    
LM        2.800755393         8.616432961         6.934544184    
LM        1.244896012         6.083025792         6.951738291    
LM        4.732089154         5.301632807         8.143156117    
LM        3.579960360         3.304099051         6.626133177    
