58
-156695.2179 22916.55343 195766.86127 208720.78609
LM        4.031730000         4.891210000         21.67850000    
LM       -1.343910000         4.891210000         21.67850000    
LM        1.343910000         4.891200000         21.67850000    
LM        2.687820000         7.058570000         21.68060000    
LM       -2.687820000         7.058570000         21.68060000    
LM       0.9230100000E-05     7.058570000         21.68060000    
LM        5.375640000         2.363680000         21.83030000    
LM      -0.8000000000E-07     2.363680000         21.83030000    
LM        2.687820000         2.363680000         21.83030000    
LM        5.375640000         4.007960000         24.03430000    
LM      -0.7699000000E-06     4.007960000         24.03430000    
LM        2.687820000         4.007960000         24.03430000    
LM        4.031730000         6.385750000         23.94130000    
LM       -1.343910000         6.385750000         23.94130000    
LM        1.343910000         6.385750000         23.94130000    
LM        6.719550000         1.691240000         24.15860000    
LM        1.343910000         1.691240000         24.15860000    
LM        4.031730000         1.691250000         24.15860000    
LM        4.031730000         3.142240000         26.31730000    
LM       -1.343910000         3.142250000         26.31730000    
LM        1.343910000         3.142250000         26.31730000    
LM        2.687820000         5.506090000         26.24930000    
LM       -2.687820000         5.506090000         26.24930000    
LM      -0.7699000000E-06     5.506090000         26.24930000    
LM        5.375640000         1.172290000         26.25030000    
LM       0.1810000000E-05     1.172290000         26.25030000    
LM        2.687820000         1.172290000         26.25030000    
LM        4.216875669         4.738481314         1.241319982    
LM        7.249655975         1.296485296         6.726690943    
LM        6.731119350         3.101916425         3.391252249    
LM       -1.465118594         4.770266865         1.220889269    
LM        1.362012671         1.546084894         5.484793883    
LM        1.374176405         3.066707741         3.454706469    
LM        1.331338507         4.606280678         1.214910627    
LM        4.092761600         1.454204174         5.624036397    
LM        4.000575608         3.102513912         3.355376406    
LM        2.724276422         6.950126124         1.073054721    
LM        5.399438256         3.811690620         5.716586577    
LM        5.443576048         5.472317740         3.139951756    
LM       -2.543059958         6.801357571         1.199317420    
LM       0.3678192253E-01     3.816430871         5.628164359    
LM      -0.6286698076E-01     5.421178779         3.288623743    
LM      -0.2096212470         6.870603573         1.159797019    
LM        2.636611190         3.956172011         5.644872210    
LM        2.728726739         5.382308982         3.326405409    
LM        5.356070182         2.384626560         1.129725091    
LM        8.055239503       -0.7339311422         5.538798091    
LM        8.193441551        0.7455343444         3.266997261    
LM       0.6249269034E-02     2.323438246         1.156070427    
LM       -1.316313340         6.219086409         5.513267070    
LM        2.658448577        0.6175669162         3.216740988    
LM        2.676937362         2.197427496         1.197945870    
LM        1.442487030         6.215230150         5.466731783    
LM        5.318218940        0.7355882153         3.328876290    
LM        6.806269319         4.728075843         6.952615440    
LM        3.924034493         3.047823899         6.980597077    
LM        7.788561119         1.559190688         8.155965814    
LM        5.718859103        0.3904929752         6.768528307    
