58
-156695.3950 21711.39687 196005.33889 207488.66776
LM        4.031731700         4.891207937         21.67851200    
LM       -1.343910770         4.891207937         21.67851200    
LM        1.343909230         4.891197937         21.67851200    
LM        2.687820770         7.058567937         21.68060200    
LM       -2.687820770         7.058567937         21.68061200    
LM       0.9230123082E-05     7.058567937         21.68060200    
LM        5.375641540         2.363676707         21.83031200    
LM      -0.8000000018E-07     2.363676707         21.83031200    
LM        2.687820000         2.363676707         21.83031200    
LM        5.375640770         4.007960937         24.03431200    
LM      -0.7698769200E-06     4.007960937         24.03432200    
LM        2.687819230         4.007961937         24.03432200    
LM        4.031731040         6.385747937         23.94130200    
LM       -1.343910770         6.385747937         23.94130200    
LM        1.343909230         6.385747937         23.94130200    
LM        6.719551540         1.691236707         24.15856200    
LM        1.343910000         1.691236707         24.15857200    
LM        4.031730000         1.691246707         24.15856200    
LM        4.031730000         3.142236707         26.31732200    
LM       -1.343910000         3.142246707         26.31732200    
LM        1.343910000         3.142246707         26.31732200    
LM        2.687819230         5.506087937         26.24932200    
LM       -2.687820770         5.506087937         26.24932200    
LM      -0.7698769195E-06     5.506087937         26.24932200    
LM        5.375641540         1.172286707         26.25032200    
LM       0.1810000000E-05     1.172286707         26.25032200    
LM        2.687820000         1.172286707         26.25032200    
LM        4.206573276         4.739243805         1.241755898    
LM        6.858494458         1.632981085         6.652487347    
LM        6.743397381         3.110032417         3.356747822    
LM       -1.468453089         4.774996601         1.212229262    
LM        1.246396866         1.573292981         5.578670132    
LM        1.402448855         2.976155181         3.411623083    
LM        1.322676286         4.608206037         1.224367547    
LM        4.074138896         1.473877831         5.606102069    
LM        4.006531898         3.108932967         3.359569644    
LM        2.726092329         6.944835930         1.083300051    
LM        5.468199154         3.740467610         5.673613517    
LM        5.426462408         5.477875879         3.111090444    
LM       -2.552532442         6.814474108         1.201089931    
LM       0.5712159552E-01     3.924758508         5.509046211    
LM      -0.9281263052E-01     5.472575787         3.263963194    
LM      -0.2161821005         6.887302605         1.142607473    
LM        2.658449121         3.945866730         5.654288373    
LM        2.721347106         5.380180576         3.350626694    
LM        5.359600654         2.382161549         1.128455959    
LM        7.998825212       -0.7438745053         5.616012721    
LM        8.172986453        0.7301431735         3.322298807    
LM       0.1625470954E-01     2.305156091         1.161793498    
LM       -1.328730127         6.208728158         5.498141469    
LM        2.623827637        0.6646136364         3.202559168    
LM        2.684945181         2.215245166         1.187350057    
LM        1.361584109         6.174069840         5.486923301    
LM        5.319697534        0.7436935989         3.332543514    
LM        5.402956256         5.414063921         6.889650876    
LM        2.676264250         2.315189951         6.924389050    
LM        7.309604963         2.097419113         8.058188780    
LM        5.620244506        0.3519642270         6.787235234    
