58
-156695.2871 19083.41916 196361.64095 204660.14647
LM        4.031731700         4.891207937         21.67851200    
LM       -1.343910770         4.891207937         21.67851200    
LM        1.343909230         4.891197937         21.67851200    
LM        2.687820770         7.058567937         21.68060200    
LM       -2.687820770         7.058567937         21.68061200    
LM       0.9230123082E-05     7.058567937         21.68060200    
LM        5.375641540         2.363676707         21.83031200    
LM      -0.8000000018E-07     2.363676707         21.83031200    
LM        2.687820000         2.363676707         21.83031200    
LM        5.375640770         4.007960937         24.03431200    
LM      -0.7698769200E-06     4.007960937         24.03432200    
LM        2.687819230         4.007961937         24.03432200    
LM        4.031731040         6.385747937         23.94130200    
LM       -1.343910770         6.385747937         23.94130200    
LM        1.343909230         6.385747937         23.94130200    
LM        6.719551540         1.691236707         24.15856200    
LM        1.343910000         1.691236707         24.15857200    
LM        4.031730000         1.691246707         24.15856200    
LM        4.031730000         3.142236707         26.31732200    
LM       -1.343910000         3.142246707         26.31732200    
LM        1.343910000         3.142246707         26.31732200    
LM        2.687819230         5.506087937         26.24932200    
LM       -2.687820770         5.506087937         26.24932200    
LM      -0.7698769195E-06     5.506087937         26.24932200    
LM        5.375641540         1.172286707         26.25032200    
LM       0.1810000000E-05     1.172286707         26.25032200    
LM        2.687820000         1.172286707         26.25032200    
LM        4.208504506         4.805069464         1.260224304    
LM        5.464112690         2.394667751         5.845491658    
LM        5.453888258         3.939000869         3.294980386    
LM       -1.393338491         4.775726587         1.171950199    
LM       0.5914705988E-01     2.386567969         5.545293874    
LM       0.9623092497E-01     3.802555912         3.352607212    
LM        1.268032317         4.651252951         1.236769373    
LM        2.883031797         2.297642541         5.682247556    
LM        2.731084307         3.901916064         3.334090533    
LM        2.737057437         6.943225542         1.116942576    
LM        4.142961180         4.675468074         5.569946119    
LM        4.174709645         6.285926445         3.171054113    
LM       -2.640777639         6.845244172         1.142898838    
LM       -1.234531148         4.713188278         5.453504760    
LM       -1.337444914         6.279823659         3.203438173    
LM      -0.1366098132         6.909481683         1.015966034    
LM        1.383632559         4.737738149         5.631376314    
LM        1.374867743         6.206055586         3.396102107    
LM        5.349895357         2.374208844         1.138983177    
LM        6.656838477        0.1133261070         5.676533457    
LM        6.831879510         1.553042564         3.403260612    
LM       0.3059760897E-01     2.319127945         1.189578078    
LM       -2.582946141         7.039520924         5.480860981    
LM        1.300416854         1.521385730         3.341885859    
LM        2.691483364         2.214939666         1.178433827    
LM       0.7131890667E-01     7.011804364         5.884615156    
LM        4.072317846         1.542453633         3.470684014    
LM        4.110037617         6.271285039         6.881339035    
LM        1.447391591         3.122078967         6.942629667    
LM        5.573878660         2.532649653         7.392505047    
LM        3.973250628       -0.8197198480E-01     7.430507968    
