58
-156694.6097 18684.27075 193751.57857 202640.44909
LM        4.031730000         4.891210000         21.67850000    
LM       -1.343910000         4.891210000         21.67850000    
LM        1.343910000         4.891200000         21.67850000    
LM        2.687820000         7.058570000         21.68060000    
LM       -2.687820000         7.058570000         21.68060000    
LM       0.9230100000E-05     7.058570000         21.68060000    
LM        5.375640000         2.363680000         21.83030000    
LM      -0.8000000000E-07     2.363680000         21.83030000    
LM        2.687820000         2.363680000         21.83030000    
LM        5.375640000         4.007960000         24.03430000    
LM      -0.7699000000E-06     4.007960000         24.03430000    
LM        2.687820000         4.007960000         24.03430000    
LM        4.031730000         6.385750000         23.94130000    
LM       -1.343910000         6.385750000         23.94130000    
LM        1.343910000         6.385750000         23.94130000    
LM        6.719550000         1.691240000         24.15860000    
LM        1.343910000         1.691240000         24.15860000    
LM        4.031730000         1.691250000         24.15860000    
LM        4.031730000         3.142240000         26.31730000    
LM       -1.343910000         3.142250000         26.31730000    
LM        1.343910000         3.142250000         26.31730000    
LM        2.687820000         5.506090000         26.24930000    
LM       -2.687820000         5.506090000         26.24930000    
LM      -0.7699000000E-06     5.506090000         26.24930000    
LM        5.375640000         1.172290000         26.25030000    
LM       0.1810000000E-05     1.172290000         26.25030000    
LM        2.687820000         1.172290000         26.25030000    
LM        4.167572928         4.774170533         1.253210712    
LM        4.186215400         2.751260886         7.111800894    
LM        5.406993110         3.958843135         3.301025266    
LM       -1.387860009         4.759573490         1.197360711    
LM       -1.738448918         3.224628607         5.815106403    
LM      -0.6449892492E-01     3.944734235         3.175690276    
LM        1.296958330         4.656168800         1.230662360    
LM       0.7806964926         2.832616291         5.235926671    
LM        2.618666421         3.864084430         3.450798397    
LM        2.736028409         6.962855758         1.116541251    
LM        1.545716569         5.197623687         5.951359778    
LM        4.139837786         6.231602187         3.098691309    
LM       -2.625713689         6.817234243         1.146612431    
LM       -3.950868840         4.604230166         5.605210021    
LM       -1.345649764         6.251061728         3.251656409    
LM      -0.1445582223         6.918394638         1.029774172    
LM       -1.221707907         5.871392958         5.881669614    
LM        1.402646207         6.222954638         3.398835645    
LM        5.361163122         2.385267551         1.133612640    
LM        5.136108286        0.8407629018         5.719276840    
LM        6.884259170         1.584305232         3.560481668    
LM       0.2264084187E-01     2.308746718         1.201024909    
LM       -3.693943603         7.204821577         5.449225620    
LM        1.344841798         1.391204886         3.319430348    
LM        2.680676031         2.237913500         1.162317669    
LM       -1.389136872         8.200664494         5.411602567    
LM        4.036659736         1.563017120         3.372568095    
LM        2.677882167         6.855935153         6.649756141    
LM      -0.1975471101         4.382057150         6.861414477    
LM        4.615223695         2.983277999         8.586701810    
LM        2.606783121         2.095570164         6.938699375    
