58
-156694.9286 25597.13081 198676.09468 213001.52686
LM        4.031731700         4.891207937         21.67851200    
LM       -1.343910770         4.891207937         21.67851200    
LM        1.343909230         4.891197937         21.67851200    
LM        2.687820770         7.058567937         21.68060200    
LM       -2.687820770         7.058567937         21.68061200    
LM       0.9230123082E-05     7.058567937         21.68060200    
LM        5.375641540         2.363676707         21.83031200    
LM      -0.8000000018E-07     2.363676707         21.83031200    
LM        2.687820000         2.363676707         21.83031200    
LM        5.375640770         4.007960937         24.03431200    
LM      -0.7698769200E-06     4.007960937         24.03432200    
LM        2.687819230         4.007961937         24.03432200    
LM        4.031731040         6.385747937         23.94130200    
LM       -1.343910770         6.385747937         23.94130200    
LM        1.343909230         6.385747937         23.94130200    
LM        6.719551540         1.691236707         24.15856200    
LM        1.343910000         1.691236707         24.15857200    
LM        4.031730000         1.691246707         24.15856200    
LM        4.031730000         3.142236707         26.31732200    
LM       -1.343910000         3.142246707         26.31732200    
LM        1.343910000         3.142246707         26.31732200    
LM        2.687819230         5.506087937         26.24932200    
LM       -2.687820770         5.506087937         26.24932200    
LM      -0.7698769195E-06     5.506087937         26.24932200    
LM        5.375641540         1.172286707         26.25032200    
LM       0.1810000000E-05     1.172286707         26.25032200    
LM        2.687820000         1.172286707         26.25032200    
LM        4.198394946         4.739867254         1.230594991    
LM        8.036574188         2.027997202         5.927319944    
LM        6.772655166         3.113883377         3.484690567    
LM       -1.469890629         4.788039106         1.224672004    
LM        2.555551291         2.150801767         5.442544053    
LM        1.392951031         3.000334364         3.355530684    
LM        1.322126553         4.610500871         1.217475839    
LM        5.346376217         2.134376607         5.678669522    
LM        4.011155621         3.087826296         3.352407300    
LM        2.726742719         6.954818329         1.075977341    
LM        6.765487831         4.390744446         5.980809405    
LM        5.398696656         5.472343416         3.101577905    
LM       -2.570341987         6.822300738         1.189084021    
LM        1.280920767         4.519988193         5.439231633    
LM      -0.1287342384         5.423060166         3.272090551    
LM      -0.2321227646         6.866019590         1.140603247    
LM        3.874756109         4.571919720         5.730601842    
LM        2.764145213         5.370650754         3.326517383    
LM        5.375395164         2.394280534         1.140004995    
LM        9.373300677       -0.2452289809         5.480259234    
LM        8.171140774        0.7567315616         3.384525582    
LM       0.2168557520E-02     2.312622223         1.177354406    
LM       0.3848622625E-01     6.849308463         5.606847151    
LM        2.616799064        0.6256836402         3.161931007    
LM        2.684096099         2.210614205         1.180681032    
LM        2.684990244         6.795516685         5.473546245    
LM        5.307088617        0.7211795860         3.313725731    
LM        6.745819356         6.205272740         6.977383669    
LM        5.128990803         3.648349693         7.051152971    
LM        9.235013691         2.428385375         7.021229274    
LM        6.883944322        0.9408766727         6.791826696    
