58
-156694.5879 23470.46237 195194.83004 207268.50070
LM        4.031730000         4.891210000         21.67850000    
LM       -1.343910000         4.891210000         21.67850000    
LM        1.343910000         4.891200000         21.67850000    
LM        2.687820000         7.058570000         21.68060000    
LM       -2.687820000         7.058570000         21.68060000    
LM       0.9230100000E-05     7.058570000         21.68060000    
LM        5.375640000         2.363680000         21.83030000    
LM      -0.8000000000E-07     2.363680000         21.83030000    
LM        2.687820000         2.363680000         21.83030000    
LM        5.375640000         4.007960000         24.03430000    
LM      -0.7699000000E-06     4.007960000         24.03430000    
LM        2.687820000         4.007960000         24.03430000    
LM        4.031730000         6.385750000         23.94130000    
LM       -1.343910000         6.385750000         23.94130000    
LM        1.343910000         6.385750000         23.94130000    
LM        6.719550000         1.691240000         24.15860000    
LM        1.343910000         1.691240000         24.15860000    
LM        4.031730000         1.691250000         24.15860000    
LM        4.031730000         3.142240000         26.31730000    
LM       -1.343910000         3.142250000         26.31730000    
LM        1.343910000         3.142250000         26.31730000    
LM        2.687820000         5.506090000         26.24930000    
LM       -2.687820000         5.506090000         26.24930000    
LM      -0.7699000000E-06     5.506090000         26.24930000    
LM        5.375640000         1.172290000         26.25030000    
LM       0.1810000000E-05     1.172290000         26.25030000    
LM        2.687820000         1.172290000         26.25030000    
LM        4.198078122         4.736021100         1.233866723    
LM        7.729241540         2.440553844         7.297461500    
LM        6.718193125         3.106211715         3.400525405    
LM       -1.470031808         4.776149162         1.206626992    
LM        1.299886929         1.563040822         5.551627250    
LM        1.430003142         3.069103658         3.440871305    
LM        1.334168675         4.611610529         1.222569914    
LM        4.095437888         1.351088626         5.568052209    
LM        4.019965431         3.118019030         3.350690056    
LM        2.734288671         6.947968062         1.079167794    
LM        5.521969400         3.694960095         5.843114849    
LM        5.423230076         5.480657112         3.102950620    
LM       -2.547044431         6.812961746         1.188659445    
LM       0.1015569254         3.956461215         5.498902074    
LM      -0.8986005954E-01     5.437985419         3.257734437    
LM      -0.2196133027         6.876133924         1.140718451    
LM        2.672608538         3.865768855         5.627240391    
LM        2.725416762         5.374423288         3.345078377    
LM        5.360716648         2.388647018         1.125489973    
LM        7.986224394       -0.7929881457         5.572091889    
LM        8.175393271        0.7439963960         3.314983412    
LM       0.1225815833E-01     2.321256676         1.168770174    
LM       -1.367751000         6.180168644         5.473779389    
LM        2.653588412        0.6404001511         3.220122474    
LM        2.683031056         2.206588018         1.191527041    
LM        2.585746219         8.267485237         5.511898650    
LM        5.326533844        0.7223662332         3.302305001    
LM        5.383311155         5.528086477         6.911825726    
LM        3.918535084         2.858925443         6.944208466    
LM        8.228368380         2.944117967         8.689238258    
LM        6.642542003         1.109052945         7.250465683    
