58
-156695.1291 19696.03808 195073.93580 204761.17401
LM        4.031731700         4.891207937         21.67851200    
LM       -1.343910770         4.891207937         21.67851200    
LM        1.343909230         4.891197937         21.67851200    
LM        2.687820770         7.058567937         21.68060200    
LM       -2.687820770         7.058567937         21.68061200    
LM       0.9230123082E-05     7.058567937         21.68060200    
LM        5.375641540         2.363676707         21.83031200    
LM      -0.8000000018E-07     2.363676707         21.83031200    
LM        2.687820000         2.363676707         21.83031200    
LM        5.375640770         4.007960937         24.03431200    
LM      -0.7698769200E-06     4.007960937         24.03432200    
LM        2.687819230         4.007961937         24.03432200    
LM        4.031731040         6.385747937         23.94130200    
LM       -1.343910770         6.385747937         23.94130200    
LM        1.343909230         6.385747937         23.94130200    
LM        6.719551540         1.691236707         24.15856200    
LM        1.343910000         1.691236707         24.15857200    
LM        4.031730000         1.691246707         24.15856200    
LM        4.031730000         3.142236707         26.31732200    
LM       -1.343910000         3.142246707         26.31732200    
LM        1.343910000         3.142246707         26.31732200    
LM        2.687819230         5.506087937         26.24932200    
LM       -2.687820770         5.506087937         26.24932200    
LM      -0.7698769195E-06     5.506087937         26.24932200    
LM        5.375641540         1.172286707         26.25032200    
LM       0.1810000000E-05     1.172286707         26.25032200    
LM        2.687820000         1.172286707         26.25032200    
LM        4.216939819         4.757830725         1.258063573    
LM        5.720618777         2.343012383         6.674206463    
LM        6.727680117         3.158628237         3.306611699    
LM       -1.459114307         4.800664667         1.230630371    
LM      -0.5848462159E-01     2.319381070         5.515280847    
LM        1.398783163         3.018437079         3.402198669    
LM        1.325716714         4.623721003         1.236409389    
LM        2.662544589         2.215747182         5.485696946    
LM        4.021651260         3.147075487         3.366169463    
LM        2.719307303         6.956573506         1.074176092    
LM        4.117930974         4.482360288         5.814421703    
LM        5.442836391         5.497736408         3.137912202    
LM       -2.540216646         6.820251604         1.187778404    
LM       -1.356045777         4.614762310         5.565669374    
LM      -0.8009282013E-01     5.488431084         3.303422319    
LM      -0.2017707156         6.893169621         1.143473734    
LM        1.265683325         4.711074444         5.591557765    
LM        2.759184377         5.403062613         3.345039229    
LM        5.348194804         2.381184357         1.123816329    
LM        6.643245195        0.6320855653E-01     5.617125672    
LM        8.201301648        0.7485784802         3.273488665    
LM       0.1749696667E-01     2.319855998         1.146735759    
LM       -2.596610556         6.910702236         5.504981814    
LM        2.665007877        0.6976030130         3.299300872    
LM        2.687309913         2.216072641         1.195207640    
LM      -0.2710686731E-01     6.951515952         5.415735483    
LM        5.312796761        0.7839391498         3.349227946    
LM        4.088293240         6.289113695         6.890115226    
LM        2.504567486         3.746786900         6.916034334    
LM        6.120259316         2.660758862         8.134921924    
LM        4.326581886         1.219858641         6.637358307    
