58
-156694.8742 18644.78264 196430.17084 204915.75074
LM        4.031730000         4.891210000         21.67850000    
LM       -1.343910000         4.891210000         21.67850000    
LM        1.343910000         4.891200000         21.67850000    
LM        2.687820000         7.058570000         21.68060000    
LM       -2.687820000         7.058570000         21.68060000    
LM       0.9230100000E-05     7.058570000         21.68060000    
LM        5.375640000         2.363680000         21.83030000    
LM      -0.8000000000E-07     2.363680000         21.83030000    
LM        2.687820000         2.363680000         21.83030000    
LM        5.375640000         4.007960000         24.03430000    
LM      -0.7699000000E-06     4.007960000         24.03430000    
LM        2.687820000         4.007960000         24.03430000    
LM        4.031730000         6.385750000         23.94130000    
LM       -1.343910000         6.385750000         23.94130000    
LM        1.343910000         6.385750000         23.94130000    
LM        6.719550000         1.691240000         24.15860000    
LM        1.343910000         1.691240000         24.15860000    
LM        4.031730000         1.691250000         24.15860000    
LM        4.031730000         3.142240000         26.31730000    
LM       -1.343910000         3.142250000         26.31730000    
LM        1.343910000         3.142250000         26.31730000    
LM        2.687820000         5.506090000         26.24930000    
LM       -2.687820000         5.506090000         26.24930000    
LM      -0.7699000000E-06     5.506090000         26.24930000    
LM        5.375640000         1.172290000         26.25030000    
LM       0.1810000000E-05     1.172290000         26.25030000    
LM        2.687820000         1.172290000         26.25030000    
LM        4.200358560         4.795809353         1.254720410    
LM        4.055295689         2.948352666         6.043530380    
LM        5.449358462         3.953970772         3.268975479    
LM       -1.394968241         4.782437732         1.171279795    
LM       -1.392428890         3.119988461         5.558827549    
LM       0.6354738512E-01     3.798731164         3.377076676    
LM        1.263239212         4.637914502         1.232633286    
LM        1.359769482         3.023626085         5.486698855    
LM        2.750394263         3.957505077         3.360454341    
LM        2.751665624         6.936487419         1.108137310    
LM        2.790845682         5.297982629         5.787021043    
LM        4.165504094         6.277607569         3.189037591    
LM       -2.634681393         6.823597217         1.157601084    
LM       -2.672772316         5.489603400         5.478264528    
LM       -1.344703729         6.277467568         3.237888667    
LM      -0.1517765040         6.903796547         1.026914697    
LM      -0.6146269629E-01     5.469629094         5.593594004    
LM        1.358438839         6.212847091         3.337229414    
LM        5.350700720         2.371222659         1.135522401    
LM        5.341266003        0.7517723173         5.620176502    
LM        6.825878703         1.541965718         3.356771682    
LM       0.3809473932E-01     2.312855429         1.184559381    
LM       -3.925605145         7.735802335         5.562562165    
LM        1.312118357         1.490607339         3.420769105    
LM        2.685099964         2.227560471         1.178659935    
LM       -1.351130007         7.724339564         5.494050989    
LM        3.996029582         1.598230826         3.456463343    
LM        2.780182921         7.062649642         6.934850919    
LM        1.206415087         4.525996725         6.920357814    
LM        5.231765320         3.467038421         7.099943694    
LM        2.888507500         1.861713100         6.831602101    
