58
-156696.3328 23318.77754 196600.38977 209741.23546
LM        4.031731700         4.891207937         21.67851200    
LM       -1.343910770         4.891207937         21.67851200    
LM        1.343909230         4.891197937         21.67851200    
LM        2.687820770         7.058567937         21.68060200    
LM       -2.687820770         7.058567937         21.68061200    
LM       0.9230123082E-05     7.058567937         21.68060200    
LM        5.375641540         2.363676707         21.83031200    
LM      -0.8000000018E-07     2.363676707         21.83031200    
LM        2.687820000         2.363676707         21.83031200    
LM        5.375640770         4.007960937         24.03431200    
LM      -0.7698769200E-06     4.007960937         24.03432200    
LM        2.687819230         4.007961937         24.03432200    
LM        4.031731040         6.385747937         23.94130200    
LM       -1.343910770         6.385747937         23.94130200    
LM        1.343909230         6.385747937         23.94130200    
LM        6.719551540         1.691236707         24.15856200    
LM        1.343910000         1.691236707         24.15857200    
LM        4.031730000         1.691246707         24.15856200    
LM        4.031730000         3.142236707         26.31732200    
LM       -1.343910000         3.142246707         26.31732200    
LM        1.343910000         3.142246707         26.31732200    
LM        2.687819230         5.506087937         26.24932200    
LM       -2.687820770         5.506087937         26.24932200    
LM      -0.7698769195E-06     5.506087937         26.24932200    
LM        5.375641540         1.172286707         26.25032200    
LM       0.1810000000E-05     1.172286707         26.25032200    
LM        2.687820000         1.172286707         26.25032200    
LM        4.210232360         4.734491605         1.232650959    
LM        6.392060541         1.356765407         6.933987830    
LM        6.747076360         3.118022952         3.399916573    
LM       -1.463627417         4.770031385         1.209039569    
LM        1.278501162         1.561584084         5.584598846    
LM        1.420189215         2.943808989         3.452054827    
LM        1.309069131         4.606802507         1.219900241    
LM        4.013108226         1.450808570         5.491768820    
LM        4.042857816         3.119479824         3.337564143    
LM        2.732061222         6.942778122         1.076148016    
LM        5.437229789         3.683638915         5.790325655    
LM        5.420291994         5.472764202         3.106996882    
LM       -2.538358129         6.811964782         1.201318444    
LM       0.9567519319E-01     3.949179207         5.521778331    
LM      -0.1059835152         5.482878331         3.263858953    
LM      -0.2090042786         6.887083233         1.138617770    
LM        2.669898896         3.848327499         5.592597478    
LM        2.706371070         5.368599499         3.315176955    
LM        5.365257342         2.377341866         1.130742509    
LM        8.023255559       -0.8564880140         5.497874892    
LM        8.177718314        0.7261950501         3.309819343    
LM       0.1204318652E-01     2.308242645         1.166347842    
LM       -1.321471239         6.199410048         5.533110061    
LM        2.626682842        0.6907873904         3.240872291    
LM        2.685011997         2.212502837         1.191352407    
LM        1.343593535         6.173379351         5.573824201    
LM        5.357849330        0.7254681986         3.334608478    
LM        5.390451533         5.454622346         6.883381251    
LM        5.633244143         2.616684501         7.659135349    
LM        8.034375869         1.393902031         7.223743878    
LM        5.675141098       -0.2202702908         7.171036743    
