58
-156695.2696 21872.21193 196322.86925 207276.09939
LM        4.031730000         4.891210000         21.67850000    
LM       -1.343910000         4.891210000         21.67850000    
LM        1.343910000         4.891200000         21.67850000    
LM        2.687820000         7.058570000         21.68060000    
LM       -2.687820000         7.058570000         21.68060000    
LM       0.9230100000E-05     7.058570000         21.68060000    
LM        5.375640000         2.363680000         21.83030000    
LM      -0.8000000000E-07     2.363680000         21.83030000    
LM        2.687820000         2.363680000         21.83030000    
LM        5.375640000         4.007960000         24.03430000    
LM      -0.7699000000E-06     4.007960000         24.03430000    
LM        2.687820000         4.007960000         24.03430000    
LM        4.031730000         6.385750000         23.94130000    
LM       -1.343910000         6.385750000         23.94130000    
LM        1.343910000         6.385750000         23.94130000    
LM        6.719550000         1.691240000         24.15860000    
LM        1.343910000         1.691240000         24.15860000    
LM        4.031730000         1.691250000         24.15860000    
LM        4.031730000         3.142240000         26.31730000    
LM       -1.343910000         3.142250000         26.31730000    
LM        1.343910000         3.142250000         26.31730000    
LM        2.687820000         5.506090000         26.24930000    
LM       -2.687820000         5.506090000         26.24930000    
LM      -0.7699000000E-06     5.506090000         26.24930000    
LM        5.375640000         1.172290000         26.25030000    
LM       0.1810000000E-05     1.172290000         26.25030000    
LM        2.687820000         1.172290000         26.25030000    
LM        4.213649297         4.745234438         1.245548353    
LM        6.930667957         1.881388178         6.674198373    
LM        6.746731283         3.116761749         3.356888900    
LM       -1.466234847         4.775602974         1.220341454    
LM        1.246456145         1.572529628         5.611825113    
LM        1.419372653         2.961814911         3.461519260    
LM        1.317613420         4.610883281         1.225825538    
LM        4.057945434         1.472230331         5.573803973    
LM        4.000852787         3.104299182         3.340245414    
LM        2.728953098         6.945082419         1.076938598    
LM        5.477500868         3.770404069         5.669619765    
LM        5.426834184         5.463813010         3.141885216    
LM       -2.541843673         6.808744619         1.211630643    
LM       0.5533378373E-01     3.906190970         5.524309349    
LM      -0.9093036672E-01     5.474688315         3.277607652    
LM      -0.2112245067         6.887033193         1.144963666    
LM        2.628432558         3.937805475         5.652461394    
LM        2.716857091         5.379803866         3.340402999    
LM        5.360968120         2.384177273         1.125323894    
LM        8.066414672       -0.8145435188         5.537667443    
LM        8.181606267        0.7335919230         3.298301656    
LM       0.1512834931E-01     2.310946395         1.159463307    
LM       -1.266283438         6.183417476         5.553616525    
LM        2.644047924        0.6862172994         3.217672267    
LM        2.679879842         2.212727179         1.183523905    
LM        1.400370891         6.218486054         5.498662046    
LM        5.331198802        0.7424916465         3.327938824    
LM        5.412689929         6.901168923         6.907649260    
LM        3.973872010         3.081857342         6.947298253    
LM        7.277484220         2.337931890         8.115960654    
LM        5.857810324        0.4549242986         6.685781893    
