58
-156695.1680 25438.77004 196031.52686 210231.17842
LM        4.031731700         4.891207937         21.67851200    
LM       -1.343910770         4.891207937         21.67851200    
LM        1.343909230         4.891197937         21.67851200    
LM        2.687820770         7.058567937         21.68060200    
LM       -2.687820770         7.058567937         21.68061200    
LM       0.9230123082E-05     7.058567937         21.68060200    
LM        5.375641540         2.363676707         21.83031200    
LM      -0.8000000018E-07     2.363676707         21.83031200    
LM        2.687820000         2.363676707         21.83031200    
LM        5.375640770         4.007960937         24.03431200    
LM      -0.7698769200E-06     4.007960937         24.03432200    
LM        2.687819230         4.007961937         24.03432200    
LM        4.031731040         6.385747937         23.94130200    
LM       -1.343910770         6.385747937         23.94130200    
LM        1.343909230         6.385747937         23.94130200    
LM        6.719551540         1.691236707         24.15856200    
LM        1.343910000         1.691236707         24.15857200    
LM        4.031730000         1.691246707         24.15856200    
LM        4.031730000         3.142236707         26.31732200    
LM       -1.343910000         3.142246707         26.31732200    
LM        1.343910000         3.142246707         26.31732200    
LM        2.687819230         5.506087937         26.24932200    
LM       -2.687820770         5.506087937         26.24932200    
LM      -0.7698769195E-06     5.506087937         26.24932200    
LM        5.375641540         1.172286707         26.25032200    
LM       0.1810000000E-05     1.172286707         26.25032200    
LM        2.687820000         1.172286707         26.25032200    
LM        4.183545415         4.738462119         1.222054961    
LM        8.441672478         2.371108940         6.812077958    
LM        6.787778376         3.117469119         3.515808085    
LM       -1.464201871         4.787874924         1.214653845    
LM        2.476967280         2.047056765         5.404348333    
LM        1.399291257         2.994983935         3.313691493    
LM        1.323786980         4.612844406         1.218433703    
LM        5.249757761         2.158543016         5.625756368    
LM        4.009386041         3.121229043         3.334586185    
LM        2.722311678         6.956729978         1.081782644    
LM        6.767781624         4.244702067         6.180191927    
LM        5.392852957         5.458589416         3.065193543    
LM       -2.574950905         6.823112515         1.167292019    
LM        1.194954972         4.323900107         5.433364788    
LM      -0.1310355236         5.434805006         3.272861920    
LM      -0.2312438527         6.864584515         1.132011753    
LM        3.793886602         4.597392463         5.725420482    
LM        2.730005013         5.390287009         3.360849938    
LM        5.379553641         2.398488474         1.145242069    
LM        9.532050512       -0.3880418507         5.378064365    
LM        8.189262758        0.7604635363         3.395517278    
LM      -0.1302216310E-02     2.313321704         1.181245447    
LM       0.1806760303         6.779466534         5.685041497    
LM        2.605959019        0.6072459922         3.131154922    
LM        2.687848357         2.211894489         1.174744856    
LM        2.747600277         6.967703547         5.464017622    
LM        5.302731828        0.7344711919         3.325394705    
LM        6.828611987         6.145921112         6.990643702    
LM        4.987885890         3.622038782         7.062724948    
LM        8.877101615         2.708017905         8.261000747    
LM        7.491166704        0.9213299072         6.725000563    
