58
-156694.9092 18613.29887 197102.98694 205381.49990
LM        4.031730000         4.891210000         21.67850000    
LM       -1.343910000         4.891210000         21.67850000    
LM        1.343910000         4.891200000         21.67850000    
LM        2.687820000         7.058570000         21.68060000    
LM       -2.687820000         7.058570000         21.68060000    
LM       0.9230100000E-05     7.058570000         21.68060000    
LM        5.375640000         2.363680000         21.83030000    
LM      -0.8000000000E-07     2.363680000         21.83030000    
LM        2.687820000         2.363680000         21.83030000    
LM        5.375640000         4.007960000         24.03430000    
LM      -0.7699000000E-06     4.007960000         24.03430000    
LM        2.687820000         4.007960000         24.03430000    
LM        4.031730000         6.385750000         23.94130000    
LM       -1.343910000         6.385750000         23.94130000    
LM        1.343910000         6.385750000         23.94130000    
LM        6.719550000         1.691240000         24.15860000    
LM        1.343910000         1.691240000         24.15860000    
LM        4.031730000         1.691250000         24.15860000    
LM        4.031730000         3.142240000         26.31730000    
LM       -1.343910000         3.142250000         26.31730000    
LM        1.343910000         3.142250000         26.31730000    
LM        2.687820000         5.506090000         26.24930000    
LM       -2.687820000         5.506090000         26.24930000    
LM      -0.7699000000E-06     5.506090000         26.24930000    
LM        5.375640000         1.172290000         26.25030000    
LM       0.1810000000E-05     1.172290000         26.25030000    
LM        2.687820000         1.172290000         26.25030000    
LM        4.198418481         4.798868772         1.258158752    
LM        3.995723066         3.008171755         5.829680827    
LM        5.440349018         3.957066162         3.279173742    
LM       -1.392047779         4.780340373         1.176681405    
LM       -1.364612159         3.107420629         5.550563214    
LM       0.4651086067E-01     3.816276919         3.366307188    
LM        1.263446524         4.640414493         1.233615857    
LM        1.376933038         3.027793790         5.500260966    
LM        2.748191958         3.944682311         3.359361621    
LM        2.752869940         6.938651189         1.108220678    
LM        2.741359707         5.349095137         5.738116493    
LM        4.156010779         6.274865433         3.203773399    
LM       -2.637671062         6.822158566         1.162704496    
LM       -2.669861800         5.485087247         5.536910973    
LM       -1.359070371         6.269731073         3.250118277    
LM      -0.1586057346         6.900986626         1.030046828    
LM      -0.5617635501E-01     5.463974136         5.571208815    
LM        1.364213734         6.216607009         3.339010353    
LM        5.354098072         2.375951743         1.132595997    
LM        5.328278585        0.7895312094         5.662218659    
LM        6.828313153         1.539857962         3.364033274    
LM       0.3766181094E-01     2.314048505         1.186340919    
LM       -3.909901511         7.751300211         5.590685046    
LM        1.314420499         1.476681739         3.441574102    
LM        2.681309829         2.227789982         1.172317218    
LM       -1.396803816         7.770755183         5.459075930    
LM        4.002327085         1.583014594         3.423373172    
LM        2.780322151         7.078270547         6.950049373    
LM        1.200620054         4.524589008         6.921042917    
LM        5.125449259         3.818254862         6.866742734    
LM        3.527975835         1.547748165         6.781679952    
