58
-156695.0635 18319.78214 194889.12830 203177.85761
LM        4.031730000         4.891210000         21.67850000    
LM       -1.343910000         4.891210000         21.67850000    
LM        1.343910000         4.891200000         21.67850000    
LM        2.687820000         7.058570000         21.68060000    
LM       -2.687820000         7.058570000         21.68060000    
LM       0.9230100000E-05     7.058570000         21.68060000    
LM        5.375640000         2.363680000         21.83030000    
LM      -0.8000000000E-07     2.363680000         21.83030000    
LM        2.687820000         2.363680000         21.83030000    
LM        5.375640000         4.007960000         24.03430000    
LM      -0.7699000000E-06     4.007960000         24.03430000    
LM        2.687820000         4.007960000         24.03430000    
LM        4.031730000         6.385750000         23.94130000    
LM       -1.343910000         6.385750000         23.94130000    
LM        1.343910000         6.385750000         23.94130000    
LM        6.719550000         1.691240000         24.15860000    
LM        1.343910000         1.691240000         24.15860000    
LM        4.031730000         1.691250000         24.15860000    
LM        4.031730000         3.142240000         26.31730000    
LM       -1.343910000         3.142250000         26.31730000    
LM        1.343910000         3.142250000         26.31730000    
LM        2.687820000         5.506090000         26.24930000    
LM       -2.687820000         5.506090000         26.24930000    
LM      -0.7699000000E-06     5.506090000         26.24930000    
LM        5.375640000         1.172290000         26.25030000    
LM       0.1810000000E-05     1.172290000         26.25030000    
LM        2.687820000         1.172290000         26.25030000    
LM        4.205212169         4.788577286         1.267840770    
LM        4.449196141         3.027863404         6.663560935    
LM        5.431672372         3.944777660         3.317231069    
LM       -1.398949272         4.767087205         1.186790244    
LM       -1.351478889         3.087264802         5.575290785    
LM       0.4857389273E-01     3.824574678         3.365378026    
LM        1.258144160         4.648605158         1.234099226    
LM        1.392151321         2.999665494         5.477714219    
LM        2.749448810         3.919429186         3.338790162    
LM        2.755056934         6.938085240         1.105055218    
LM        2.804287415         5.278570040         5.744547139    
LM        4.160626219         6.253854217         3.173743983    
LM       -2.626869764         6.817518123         1.167714877    
LM       -2.611387214         5.414405805         5.618200180    
LM       -1.349817631         6.236200134         3.263090435    
LM      -0.1588641910         6.906748283         1.033535226    
LM       0.8990696783E-02     5.440857273         5.574878991    
LM        1.401804181         6.202699887         3.369404844    
LM        5.361126467         2.385130596         1.134159376    
LM        5.344954138        0.8294609751         5.614597317    
LM        6.841375003         1.531749623         3.365838218    
LM       0.3809017225E-01     2.315772747         1.186587769    
LM       -3.940100770         7.735713807         5.572604192    
LM        1.341720797         1.464322610         3.430431144    
LM        2.679498195         2.231799221         1.156917404    
LM       -1.370477464         7.752711596         5.375618383    
LM        4.003617956         1.553064192         3.365146027    
LM        4.135276530         6.285605652         6.997067646    
LM        1.291526401         4.524309195         6.924545002    
LM        4.788087671         3.459320348         8.110366424    
LM        3.511910763         1.515402080         6.733289155    
