58
-156694.8760 22468.25275 197043.72663 208124.43302
LM        4.031731700         4.891207937         21.67851200    
LM       -1.343910770         4.891207937         21.67851200    
LM        1.343909230         4.891197937         21.67851200    
LM        2.687820770         7.058567937         21.68060200    
LM       -2.687820770         7.058567937         21.68061200    
LM       0.9230123082E-05     7.058567937         21.68060200    
LM        5.375641540         2.363676707         21.83031200    
LM      -0.8000000018E-07     2.363676707         21.83031200    
LM        2.687820000         2.363676707         21.83031200    
LM        5.375640770         4.007960937         24.03431200    
LM      -0.7698769200E-06     4.007960937         24.03432200    
LM        2.687819230         4.007961937         24.03432200    
LM        4.031731040         6.385747937         23.94130200    
LM       -1.343910770         6.385747937         23.94130200    
LM        1.343909230         6.385747937         23.94130200    
LM        6.719551540         1.691236707         24.15856200    
LM        1.343910000         1.691236707         24.15857200    
LM        4.031730000         1.691246707         24.15856200    
LM        4.031730000         3.142236707         26.31732200    
LM       -1.343910000         3.142246707         26.31732200    
LM        1.343910000         3.142246707         26.31732200    
LM        2.687819230         5.506087937         26.24932200    
LM       -2.687820770         5.506087937         26.24932200    
LM      -0.7698769195E-06     5.506087937         26.24932200    
LM        5.375641540         1.172286707         26.25032200    
LM       0.1810000000E-05     1.172286707         26.25032200    
LM        2.687820000         1.172286707         26.25032200    
LM        4.220233774         4.790975596         1.277992352    
LM        6.676703832         2.665147588         6.158898337    
LM        5.454159230         3.963746440         3.396428188    
LM       -1.408756024         4.748117527         1.187211707    
LM        1.187809605         2.930971756         5.434216866    
LM       0.5180013864E-01     3.841270924         3.304565388    
LM        1.268916776         4.645192223         1.224574828    
LM        4.046555101         2.927417788         5.614745330    
LM        2.722534504         3.875944476         3.327657667    
LM        2.747285065         6.952160797         1.107199654    
LM        5.481765082         5.117259483         5.988283256    
LM        4.160182807         6.280970407         3.130699092    
LM       -2.631074575         6.836820338         1.152531778    
LM      -0.2816386386E-01     5.300335495         5.442544857    
LM       -1.337990648         6.214605439         3.204536361    
LM      -0.1386239359         6.915428610         1.018633297    
LM        2.569399317         5.322809008         5.715032858    
LM        1.445950779         6.208321818         3.368212008    
LM        5.363135983         2.403981704         1.149505033    
LM        8.111732832        0.4865818501         5.469215895    
LM        6.826517228         1.612423595         3.508380529    
LM       0.2853647078E-01     2.305006698         1.204945361    
LM       -1.270796800         7.639545457         5.600544752    
LM        1.303707327         1.437269077         3.317379023    
LM        2.681332618         2.226939368         1.151163123    
LM        1.313972071         7.577414328         5.541126711    
LM        4.052222650         1.503302411         3.347366504    
LM        5.472831843         6.932916849         6.981336755    
LM        3.826443074         4.383718971         7.035078726    
LM        7.914523544         3.228529735         7.104931672    
LM        5.822781736         1.371002193         6.993402686    
