58
-156695.1759 21692.61740 197105.35627 203042.54326
LM        4.031730000         4.891210000         21.67850000    
LM       -1.343910000         4.891210000         21.67850000    
LM        1.343910000         4.891200000         21.67850000    
LM        2.687820000         7.058570000         21.68060000    
LM       -2.687820000         7.058570000         21.68060000    
LM       0.9230100000E-05     7.058570000         21.68060000    
LM        5.375640000         2.363680000         21.83030000    
LM      -0.8000000000E-07     2.363680000         21.83030000    
LM        2.687820000         2.363680000         21.83030000    
LM        5.375640000         4.007960000         24.03430000    
LM      -0.7699000000E-06     4.007960000         24.03430000    
LM        2.687820000         4.007960000         24.03430000    
LM        4.031730000         6.385750000         23.94130000    
LM       -1.343910000         6.385750000         23.94130000    
LM        1.343910000         6.385750000         23.94130000    
LM        6.719550000         1.691240000         24.15860000    
LM        1.343910000         1.691240000         24.15860000    
LM        4.031730000         1.691250000         24.15860000    
LM        4.031730000         3.142240000         26.31730000    
LM       -1.343910000         3.142250000         26.31730000    
LM        1.343910000         3.142250000         26.31730000    
LM        2.687820000         5.506090000         26.24930000    
LM       -2.687820000         5.506090000         26.24930000    
LM      -0.7699000000E-06     5.506090000         26.24930000    
LM        5.375640000         1.172290000         26.25030000    
LM       0.1810000000E-05     1.172290000         26.25030000    
LM        2.687820000         1.172290000         26.25030000    
LM        4.242231509         4.785971591         1.275794702    
LM        4.669088244         2.114560222         6.500243718    
LM        5.507579932         3.931316647         3.363758240    
LM       -1.406966601         4.784383725         1.193997450    
LM       -1.216956718         2.989214122         5.619509238    
LM       0.1044738984         3.722255127         3.372078407    
LM        1.252045558         4.651661325         1.248341506    
LM        2.425414527         2.367005570         5.464377996    
LM        2.748734266         3.968391372         3.357588197    
LM        2.732327859         6.931928286         1.113133059    
LM        2.343847294         7.210110814         5.810195114    
LM        4.161539074         6.229789056         3.118864786    
LM       -2.637065440         6.844026490         1.134913547    
LM       -3.801431665         4.466080043         5.684192922    
LM       -1.392826939         6.263990212         3.231321612    
LM      -0.1511719542         6.915313214         1.029756054    
LM       0.8925313114         4.588719084         5.588797175    
LM        1.345011284         6.201013850         3.400519823    
LM        5.369036296         2.390143296         1.136841517    
LM        3.757111191        0.5415896402E-01     5.576049448    
LM        6.875477098         1.473314946         3.417561559    
LM       0.2097664240E-01     2.317583627         1.178253875    
LM       -2.999014067         7.054861864         5.405782900    
LM        1.318732082         1.549804873         3.279085718    
LM        2.686392745         2.250331740         1.152131910    
LM       -1.541103168         5.229393643         6.515223176    
LM        4.049675640         1.566449731         3.345187480    
LM        3.857943488         8.369952346         6.607425677    
LM        2.567432390         5.304140131         6.611794636    
LM        4.616769193         2.109271909         8.042181448    
LM        2.518505300        -1.684331937         8.057370569    
