58
-156695.3892 21614.93625 195936.90438 206829.46701
LM        4.031731700         4.891207937         21.67851200    
LM       -1.343910770         4.891207937         21.67851200    
LM        1.343909230         4.891197937         21.67851200    
LM        2.687820770         7.058567937         21.68060200    
LM       -2.687820770         7.058567937         21.68061200    
LM       0.9230123082E-05     7.058567937         21.68060200    
LM        5.375641540         2.363676707         21.83031200    
LM      -0.8000000018E-07     2.363676707         21.83031200    
LM        2.687820000         2.363676707         21.83031200    
LM        5.375640770         4.007960937         24.03431200    
LM      -0.7698769200E-06     4.007960937         24.03432200    
LM        2.687819230         4.007961937         24.03432200    
LM        4.031731040         6.385747937         23.94130200    
LM       -1.343910770         6.385747937         23.94130200    
LM        1.343909230         6.385747937         23.94130200    
LM        6.719551540         1.691236707         24.15856200    
LM        1.343910000         1.691236707         24.15857200    
LM        4.031730000         1.691246707         24.15856200    
LM        4.031730000         3.142236707         26.31732200    
LM       -1.343910000         3.142246707         26.31732200    
LM        1.343910000         3.142246707         26.31732200    
LM        2.687819230         5.506087937         26.24932200    
LM       -2.687820770         5.506087937         26.24932200    
LM      -0.7698769195E-06     5.506087937         26.24932200    
LM        5.375641540         1.172286707         26.25032200    
LM       0.1810000000E-05     1.172286707         26.25032200    
LM        2.687820000         1.172286707         26.25032200    
LM        4.198834389         4.729656710         1.235592659    
LM        6.909544376         1.809048459         6.329293676    
LM        6.709589442         3.114848612         3.354744730    
LM       -1.461913981         4.774656218         1.208100323    
LM        1.349496463         1.589627038         5.470166334    
LM        1.403641897         3.050310149         3.412599579    
LM        1.331757523         4.610560997         1.221404093    
LM        4.346834258         1.295996718         5.705365594    
LM        3.993639208         3.078373513         3.390172053    
LM        2.727782677         6.947640538         1.074368901    
LM        5.391431167         3.822059936         5.680161057    
LM        5.434463202         5.458609629         3.097657980    
LM       -2.545289525         6.809661101         1.189680135    
LM      -0.1546394656E-02     3.892411532         5.501498981    
LM      -0.8288936975E-01     5.452348235         3.262987827    
LM      -0.2059707942         6.884151924         1.149810856    
LM        2.597966802         3.968642704         5.612398566    
LM        2.746433068         5.383776685         3.324686653    
LM        5.352483421         2.378598826         1.132172489    
LM        7.579448021       -0.4582810312         5.676647905    
LM        8.184129020        0.7244060168         3.285561920    
LM       0.1353150654E-01     2.315852909         1.159747864    
LM       -1.389517163         6.241592274         5.458331189    
LM        2.639076933        0.6347876753         3.185028269    
LM        2.683625091         2.212253708         1.191483023    
LM        1.146516966         6.001200717         6.330894991    
LM        5.339749118        0.7203379170         3.316783904    
LM        5.160760709         5.660123464         6.722100289    
LM        3.863123748         2.909998810         6.880390985    
LM        6.969457944         1.825038712         7.867341506    
LM        5.109602582        -1.023294356         7.869116224    
