58
-156694.2152 20607.52901 194227.81016 203440.38748
LM        4.031730000         4.891210000         21.67850000    
LM       -1.343910000         4.891210000         21.67850000    
LM        1.343910000         4.891200000         21.67850000    
LM        2.687820000         7.058570000         21.68060000    
LM       -2.687820000         7.058570000         21.68060000    
LM       0.9230100000E-05     7.058570000         21.68060000    
LM        5.375640000         2.363680000         21.83030000    
LM      -0.8000000000E-07     2.363680000         21.83030000    
LM        2.687820000         2.363680000         21.83030000    
LM        5.375640000         4.007960000         24.03430000    
LM      -0.7699000000E-06     4.007960000         24.03430000    
LM        2.687820000         4.007960000         24.03430000    
LM        4.031730000         6.385750000         23.94130000    
LM       -1.343910000         6.385750000         23.94130000    
LM        1.343910000         6.385750000         23.94130000    
LM        6.719550000         1.691240000         24.15860000    
LM        1.343910000         1.691240000         24.15860000    
LM        4.031730000         1.691250000         24.15860000    
LM        4.031730000         3.142240000         26.31730000    
LM       -1.343910000         3.142250000         26.31730000    
LM        1.343910000         3.142250000         26.31730000    
LM        2.687820000         5.506090000         26.24930000    
LM       -2.687820000         5.506090000         26.24930000    
LM      -0.7699000000E-06     5.506090000         26.24930000    
LM        5.375640000         1.172290000         26.25030000    
LM       0.1810000000E-05     1.172290000         26.25030000    
LM        2.687820000         1.172290000         26.25030000    
LM        4.227543538         4.806080252         1.276919418    
LM        6.449027501         3.253151884         7.295418138    
LM        5.450873618         3.927147202         3.345418500    
LM       -1.401385499         4.765627923         1.167841507    
LM       0.2902632380E-01     2.351404532         5.576918150    
LM       0.1443507978         3.811683017         3.416648751    
LM        1.257637463         4.651942973         1.245089544    
LM        2.805570806         2.163459427         5.588393313    
LM        2.769470175         3.914309529         3.342950325    
LM        2.740142612         6.943179684         1.111252807    
LM        4.262314459         4.489763020         5.833423428    
LM        4.181907867         6.279825074         3.161306246    
LM       -2.630845857         6.841834330         1.137859830    
LM       -1.162808907         4.752830919         5.475628232    
LM       -1.331740682         6.240040825         3.201619123    
LM      -0.1377740331         6.914683961         1.011686543    
LM        1.400791389         4.648469094         5.666401158    
LM        1.393310302         6.174921962         3.415237911    
LM        5.362202047         2.392663071         1.129884770    
LM        6.729193934       -0.2624339208E-01     5.626224760    
LM        6.830955772         1.531340149         3.396630670    
LM       0.3545654321E-01     2.316434430         1.200855766    
LM       -2.617296213         6.960386923         5.477202466    
LM        1.335364151         1.518993788         3.406897097    
LM        2.682883367         2.229209673         1.160503447    
LM        1.319620138         9.031881114         5.518515736    
LM        4.058790806         1.511846722         3.362766960    
LM        4.152796698         6.310015900         6.935834038    
LM        2.671066288         3.667488417         6.970878284    
LM        6.949609209         3.757082904         8.685477525    
LM        5.355289229         1.925738064         7.260316188    
