58
-156695.0276 20668.25279 195777.14509 205284.71180
LM        4.031731700         4.891207937         21.67851200    
LM       -1.343910770         4.891207937         21.67851200    
LM        1.343909230         4.891197937         21.67851200    
LM        2.687820770         7.058567937         21.68060200    
LM       -2.687820770         7.058567937         21.68061200    
LM       0.9230123082E-05     7.058567937         21.68060200    
LM        5.375641540         2.363676707         21.83031200    
LM      -0.8000000018E-07     2.363676707         21.83031200    
LM        2.687820000         2.363676707         21.83031200    
LM        5.375640770         4.007960937         24.03431200    
LM      -0.7698769200E-06     4.007960937         24.03432200    
LM        2.687819230         4.007961937         24.03432200    
LM        4.031731040         6.385747937         23.94130200    
LM       -1.343910770         6.385747937         23.94130200    
LM        1.343909230         6.385747937         23.94130200    
LM        6.719551540         1.691236707         24.15856200    
LM        1.343910000         1.691236707         24.15857200    
LM        4.031730000         1.691246707         24.15856200    
LM        4.031730000         3.142236707         26.31732200    
LM       -1.343910000         3.142246707         26.31732200    
LM        1.343910000         3.142246707         26.31732200    
LM        2.687819230         5.506087937         26.24932200    
LM       -2.687820770         5.506087937         26.24932200    
LM      -0.7698769195E-06     5.506087937         26.24932200    
LM        5.375641540         1.172286707         26.25032200    
LM       0.1810000000E-05     1.172286707         26.25032200    
LM        2.687820000         1.172286707         26.25032200    
LM        4.210491080         4.790216492         1.263474753    
LM        5.528206494        0.9145318831         6.626345022    
LM        5.460773308         3.932689001         3.281383146    
LM       -1.404191187         4.780647493         1.174216173    
LM      -0.1147715133E-01    0.7354551540         5.608469362    
LM       0.8225799673E-01     3.853907508         3.433842373    
LM        1.266234917         4.636601172         1.224646655    
LM        2.776777147        0.7204359249         5.580807690    
LM        2.737909217         3.873610835         3.323624417    
LM        2.761211874         6.929642115         1.120055722    
LM        4.193862242         2.946660541         5.684281023    
LM        4.169397961         6.277590471         3.234491613    
LM       -2.634887875         6.837414863         1.179216388    
LM       -1.229140659         3.133748197         5.538417430    
LM       -1.325276266         6.214062648         3.254015159    
LM      -0.1548364212         6.905088811         1.037902105    
LM        1.379108771         3.120421741         5.554359663    
LM        1.384847754         6.181678121         3.381364920    
LM        5.361155842         2.369926235         1.130158209    
LM        6.748700153        -1.543756770         5.589782137    
LM        6.825441919         1.498099835         3.391523917    
LM       0.3119428482E-01     2.311264492         1.192808432    
LM       -2.534777846         5.413484472         5.610612840    
LM        1.305679400         1.434050877         3.347876608    
LM        2.676798844         2.213422617         1.157455942    
LM       0.3515406251E-01     5.351844354         5.401175372    
LM        4.058315162         1.518361052         3.361136095    
LM        4.129084811         4.622250992         6.913262556    
LM        1.413052791         1.543918574         6.929691005    
LM        5.838542844         1.417386718         8.057978419    
LM        4.911875890       -0.7535729824         6.692856850    
