58
-156695.9355 20752.04618 195272.42324 205359.26463
LM        4.031731700         4.891207937         21.67851200    
LM       -1.343910770         4.891207937         21.67851200    
LM        1.343909230         4.891197937         21.67851200    
LM        2.687820770         7.058567937         21.68060200    
LM       -2.687820770         7.058567937         21.68061200    
LM       0.9230123082E-05     7.058567937         21.68060200    
LM        5.375641540         2.363676707         21.83031200    
LM      -0.8000000018E-07     2.363676707         21.83031200    
LM        2.687820000         2.363676707         21.83031200    
LM        5.375640770         4.007960937         24.03431200    
LM      -0.7698769200E-06     4.007960937         24.03432200    
LM        2.687819230         4.007961937         24.03432200    
LM        4.031731040         6.385747937         23.94130200    
LM       -1.343910770         6.385747937         23.94130200    
LM        1.343909230         6.385747937         23.94130200    
LM        6.719551540         1.691236707         24.15856200    
LM        1.343910000         1.691236707         24.15857200    
LM        4.031730000         1.691246707         24.15856200    
LM        4.031730000         3.142236707         26.31732200    
LM       -1.343910000         3.142246707         26.31732200    
LM        1.343910000         3.142246707         26.31732200    
LM        2.687819230         5.506087937         26.24932200    
LM       -2.687820770         5.506087937         26.24932200    
LM      -0.7698769195E-06     5.506087937         26.24932200    
LM        5.375641540         1.172286707         26.25032200    
LM       0.1810000000E-05     1.172286707         26.25032200    
LM        2.687820000         1.172286707         26.25032200    
LM        4.226483932         4.799400455         1.275174721    
LM        6.155518355         2.311877013         6.814372122    
LM        5.455216895         3.913408789         3.318917447    
LM       -1.398523242         4.751905172         1.168844411    
LM       0.1515176891         2.351105659         5.498823324    
LM       0.8752179772E-01     3.832115355         3.386781885    
LM        1.261400785         4.661254207         1.234727437    
LM        2.809002828         2.345177989         5.612360904    
LM        2.726732062         3.901326060         3.307724132    
LM        2.756233752         6.933619994         1.123985320    
LM        4.139517551         4.728771873         5.581151241    
LM        4.183768972         6.274199392         3.248266164    
LM       -2.632862826         6.834118747         1.156415497    
LM       -1.285124258         4.540594665         5.582272855    
LM       -1.327458992         6.214320297         3.210424039    
LM      -0.1471349723         6.913629599         1.014070628    
LM        1.380358626         4.752400643         5.644434214    
LM        1.375474993         6.214621338         3.408897103    
LM        5.354027217         2.368563818         1.134823363    
LM        6.790068908        0.1126284476         5.650215862    
LM        6.836426419         1.546361697         3.374997381    
LM       0.3522061852E-01     2.323763520         1.191210473    
LM       -2.565271093         7.017194609         5.494759993    
LM        1.336620043         1.495869729         3.366091469    
LM        2.683085176         2.222743068         1.160011397    
LM       0.2011008294         7.091168145         5.785638646    
LM        4.044747077         1.522406184         3.408167702    
LM        7.107950553         6.305341364         6.802388395    
LM        2.794382231         4.000930700         6.959298577    
LM        6.647614678         2.499817539         8.273384971    
LM        4.574087612         1.583938101         6.738422779    
