58
-156695.1292 19696.03733 195074.05142 204761.29238
LM        4.031730000         4.891210000         21.67850000    
LM       -1.343910000         4.891210000         21.67850000    
LM        1.343910000         4.891200000         21.67850000    
LM        2.687820000         7.058570000         21.68060000    
LM       -2.687820000         7.058570000         21.68060000    
LM       0.9230100000E-05     7.058570000         21.68060000    
LM        5.375640000         2.363680000         21.83030000    
LM      -0.8000000000E-07     2.363680000         21.83030000    
LM        2.687820000         2.363680000         21.83030000    
LM        5.375640000         4.007960000         24.03430000    
LM      -0.7699000000E-06     4.007960000         24.03430000    
LM        2.687820000         4.007960000         24.03430000    
LM        4.031730000         6.385750000         23.94130000    
LM       -1.343910000         6.385750000         23.94130000    
LM        1.343910000         6.385750000         23.94130000    
LM        6.719550000         1.691240000         24.15860000    
LM        1.343910000         1.691240000         24.15860000    
LM        4.031730000         1.691250000         24.15860000    
LM        4.031730000         3.142240000         26.31730000    
LM       -1.343910000         3.142250000         26.31730000    
LM        1.343910000         3.142250000         26.31730000    
LM        2.687820000         5.506090000         26.24930000    
LM       -2.687820000         5.506090000         26.24930000    
LM      -0.7699000000E-06     5.506090000         26.24930000    
LM        5.375640000         1.172290000         26.25030000    
LM       0.1810000000E-05     1.172290000         26.25030000    
LM        2.687820000         1.172290000         26.25030000    
LM        4.216939931         4.757832493         1.258044772    
LM        5.720620712         2.343011628         6.674187948    
LM        6.727680735         3.158627244         3.306593323    
LM       -1.459113417         4.800664998         1.230611941    
LM      -0.5848287675E-01     2.319380503         5.515262181    
LM        1.398784204         3.018437753         3.402180277    
LM        1.325717029         4.623723526         1.236388006    
LM        2.662546199         2.215746593         5.485678696    
LM        4.021651635         3.147075479         3.366150610    
LM        2.719308976         6.956573716         1.074157200    
LM        4.117932259         4.482359962         5.814403292    
LM        5.442837114         5.497736161         3.137892114    
LM       -2.540215403         6.820251133         1.187762560    
LM       -1.356044395         4.614761572         5.565651526    
LM      -0.8009185038E-01     5.488429765         3.303404275    
LM      -0.2017713817         6.893167765         1.143461296    
LM        1.265684890         4.711074021         5.591539502    
LM        2.759185127         5.403062642         3.345019632    
LM        5.348194983         2.381187042         1.123797329    
LM        6.643246427        0.6320841383E-01     5.617105950    
LM        8.201303055        0.7485792749         3.273468425    
LM       0.1749736870E-01     2.319858217         1.146715896    
LM       -2.596609214         6.910701685         5.504962355    
LM        2.665009270        0.6976025527         3.299280913    
LM        2.687310072         2.216073695         1.195188243    
LM      -0.2710497982E-01     6.951515393         5.415717505    
LM        5.312796943        0.7839388380         3.349207109    
LM        4.088294482         6.289113640         6.890095871    
LM        2.504569066         3.746786369         6.916016033    
LM        6.120261605         2.660757537         8.134903443    
LM        4.326583402         1.219858242         6.637340049    
