58
-156695.0820 22737.06751 197082.79751 209621.64666
LM        4.031731700         4.891207937         21.67851200    
LM       -1.343910770         4.891207937         21.67851200    
LM        1.343909230         4.891197937         21.67851200    
LM        2.687820770         7.058567937         21.68060200    
LM       -2.687820770         7.058567937         21.68061200    
LM       0.9230123082E-05     7.058567937         21.68060200    
LM        5.375641540         2.363676707         21.83031200    
LM      -0.8000000018E-07     2.363676707         21.83031200    
LM        2.687820000         2.363676707         21.83031200    
LM        5.375640770         4.007960937         24.03431200    
LM      -0.7698769200E-06     4.007960937         24.03432200    
LM        2.687819230         4.007961937         24.03432200    
LM        4.031731040         6.385747937         23.94130200    
LM       -1.343910770         6.385747937         23.94130200    
LM        1.343909230         6.385747937         23.94130200    
LM        6.719551540         1.691236707         24.15856200    
LM        1.343910000         1.691236707         24.15857200    
LM        4.031730000         1.691246707         24.15856200    
LM        4.031730000         3.142236707         26.31732200    
LM       -1.343910000         3.142246707         26.31732200    
LM        1.343910000         3.142246707         26.31732200    
LM        2.687819230         5.506087937         26.24932200    
LM       -2.687820770         5.506087937         26.24932200    
LM      -0.7698769195E-06     5.506087937         26.24932200    
LM        5.375641540         1.172286707         26.25032200    
LM       0.1810000000E-05     1.172286707         26.25032200    
LM        2.687820000         1.172286707         26.25032200    
LM        4.210309509         4.739209730         1.237033685    
LM        6.680250471         1.273467865         6.269230778    
LM        6.737242255         3.129214823         3.378760842    
LM       -1.466118321         4.769454359         1.210278282    
LM        1.258730548         1.555482870         5.550082671    
LM        1.431423866         2.971540981         3.433361239    
LM        1.317118222         4.609756415         1.223274124    
LM        4.051102592         1.440432874         5.555051947    
LM        4.027587101         3.113954438         3.347056664    
LM        2.728746717         6.943796579         1.079911299    
LM        5.525123958         3.687258720         5.818175689    
LM        5.423041073         5.475964492         3.108906118    
LM       -2.535952666         6.811556121         1.204394113    
LM       0.8752367903E-01     3.942182376         5.492851377    
LM      -0.1020427141         5.490488659         3.256609799    
LM      -0.2070982807         6.892375151         1.137544355    
LM        2.647932206         3.887061538         5.644060775    
LM        2.712020906         5.367239245         3.334417676    
LM        5.361907012         2.375499350         1.129659868    
LM        8.057313276       -0.8288969641         5.521740676    
LM        8.182295030        0.7301040543         3.289924152    
LM       0.1214119314E-01     2.314453990         1.161969287    
LM       -1.300537030         6.200702888         5.528991158    
LM        2.637993586        0.7124619635         3.260588406    
LM        2.683487198         2.212798524         1.188370412    
LM        1.365864135         6.162849098         5.566568371    
LM        5.357823698        0.7374266568         3.353412779    
LM        5.453590497         5.482305765         6.906194619    
LM        3.926553748         2.927601091         6.965914238    
LM        7.913579335         1.806314470         7.213534359    
LM        5.740019520        0.6270677938E-02     7.034790900    
