58
-156694.8741 18644.78720 196430.05232 204915.63397
LM        4.031731700         4.891207937         21.67851200    
LM       -1.343910770         4.891207937         21.67851200    
LM        1.343909230         4.891197937         21.67851200    
LM        2.687820770         7.058567937         21.68060200    
LM       -2.687820770         7.058567937         21.68061200    
LM       0.9230123082E-05     7.058567937         21.68060200    
LM        5.375641540         2.363676707         21.83031200    
LM      -0.8000000018E-07     2.363676707         21.83031200    
LM        2.687820000         2.363676707         21.83031200    
LM        5.375640770         4.007960937         24.03431200    
LM      -0.7698769200E-06     4.007960937         24.03432200    
LM        2.687819230         4.007961937         24.03432200    
LM        4.031731040         6.385747937         23.94130200    
LM       -1.343910770         6.385747937         23.94130200    
LM        1.343909230         6.385747937         23.94130200    
LM        6.719551540         1.691236707         24.15856200    
LM        1.343910000         1.691236707         24.15857200    
LM        4.031730000         1.691246707         24.15856200    
LM        4.031730000         3.142236707         26.31732200    
LM       -1.343910000         3.142246707         26.31732200    
LM        1.343910000         3.142246707         26.31732200    
LM        2.687819230         5.506087937         26.24932200    
LM       -2.687820770         5.506087937         26.24932200    
LM      -0.7698769195E-06     5.506087937         26.24932200    
LM        5.375641540         1.172286707         26.25032200    
LM       0.1810000000E-05     1.172286707         26.25032200    
LM        2.687820000         1.172286707         26.25032200    
LM        4.200358748         4.795808442         1.254738721    
LM        4.055294515         2.948353919         6.043546767    
LM        5.449358435         3.953971061         3.268994429    
LM       -1.394970018         4.782435461         1.171297696    
LM       -1.392430412         3.119989531         5.558846826    
LM       0.6354648037E-01     3.798731791         3.377096865    
LM        1.263238546         4.637913493         1.232655375    
LM        1.359767812         3.023627031         5.486719068    
LM        2.750394443         3.957505182         3.360475470    
LM        2.751664226         6.936487951         1.108155439    
LM        2.790844677         5.297983560         5.787041003    
LM        4.165504333         6.277607883         3.189055018    
LM       -2.634681813         6.823598874         1.157614509    
LM       -2.672773540         5.489604961         5.478281263    
LM       -1.344703344         6.277468031         3.237904221    
LM      -0.1517751556         6.903801810         1.026925796    
LM      -0.6146434314E-01     5.469630133         5.593612048    
LM        1.358439400         6.212847035         3.337249569    
LM        5.350700536         2.371220271         1.135541561    
LM        5.341264837        0.7517728337         5.620196293    
LM        6.825878151         1.541965863         3.356791682    
LM       0.3809397056E-01     2.312854793         1.184579713    
LM       -3.925606407         7.735803116         5.562581114    
LM        1.312118565         1.490607881         3.420789208    
LM        2.685099495         2.227560188         1.178679844    
LM       -1.351131511         7.724340177         5.494067807    
LM        3.996029539         1.598231413         3.456483365    
LM        2.780182175         7.062650538         6.934870468    
LM        1.206413058         4.525998744         6.920376982    
LM        5.231763498         3.467036917         7.099962198    
LM        2.888503780         1.861715905         6.831618103    
