58
-156694.9122798   84642.83453    866171.66441    915261.34897
LM        4.031731700         4.891207937         21.67851200    
LM       -1.343910770         4.891207937         21.67851200    
LM        1.343909230         4.891197937         21.67851200    
LM        2.687820770         7.058567937         21.68060200    
LM       -2.687820770         7.058567937         21.68061200    
LM       0.9230123082E-05     7.058567937         21.68060200    
LM        5.375641540         2.363676707         21.83031200    
LM      -0.8000000018E-07     2.363676707         21.83031200    
LM        2.687820000         2.363676707         21.83031200    
LM        5.375640770         4.007960937         24.03431200    
LM      -0.7698769200E-06     4.007960937         24.03432200    
LM        2.687819230         4.007961937         24.03432200    
LM        4.031731040         6.385747937         23.94130200    
LM       -1.343910770         6.385747937         23.94130200    
LM        1.343909230         6.385747937         23.94130200    
LM        6.719551540         1.691236707         24.15856200    
LM        1.343910000         1.691236707         24.15857200    
LM        4.031730000         1.691246707         24.15856200    
LM        4.031730000         3.142236707         26.31732200    
LM       -1.343910000         3.142246707         26.31732200    
LM        1.343910000         3.142246707         26.31732200    
LM        2.687819230         5.506087937         26.24932200    
LM       -2.687820770         5.506087937         26.24932200    
LM      -0.7698769195E-06     5.506087937         26.24932200    
LM        5.375641540         1.172286707         26.25032200    
LM       0.1810000000E-05     1.172286707         26.25032200    
LM        2.687820000         1.172286707         26.25032200    
LM        4.225730930         4.801018008         1.280605038    
LM        5.751363217         2.302895885         6.685074518    
LM        5.449050542         3.930724405         3.341927237    
LM       -1.404917097         4.767308242         1.176911184    
LM       0.5625123890E-02     2.360101470         5.546140299    
LM       0.1248857468         3.779412154         3.413672106    
LM        1.262999563         4.651607916         1.245981047    
LM        2.718914988         2.222181757         5.573365891    
LM        2.756833956         3.911222377         3.356106369    
LM        2.742273695         6.938509529         1.109133357    
LM        4.244743730         4.457358817         5.837170453    
LM        4.185718504         6.279230058         3.155251260    
LM       -2.631422550         6.843087546         1.140147055    
LM       -1.214987755         4.678258299         5.515756980    
LM       -1.325803561         6.250593702         3.214128059    
LM      -0.1437632996         6.918993094         1.006431460    
LM        1.363185874         4.721239208         5.684970427    
LM        1.401942885         6.191986178         3.403355739    
LM        5.359110460         2.389431742         1.135127341    
LM        6.744285071        0.4371070941E-01     5.671904218    
LM        6.829421401         1.524886121         3.380081280    
LM       0.3398956549E-01     2.321673035         1.195123297    
LM       -2.599223852         6.954579655         5.488455222    
LM        1.313286875         1.545089430         3.398829007    
LM        2.684306327         2.233167392         1.162337372    
LM       0.9522614045E-01     6.955407219         5.489266366    
LM        4.059457173         1.529068592         3.374403033    
LM        4.195880510         6.262024815         6.929453607    
LM        2.630695320         3.744478125         6.979159112    
LM        6.228979870         2.700888263         8.101919137    
LM        4.387513017         1.151295529         6.763101483    
